
##########                                Name:     oleObject80.pdb
##########                DOCK_Rotatable_Bonds:                  14
##########                         Heavy_Atoms:                  51
##########                    Molecular_Weight:             703.283
##########                DOCK_Rotatable_Bonds:                  14
##########                       Formal_Charge:         0.000299793
##########                     HBond_Acceptors:                  10
##########                        HBond_Donors:                   3
##########                         Heavy_Atoms:                  51
##########                          Grid_Score:          -56.212574
##########                     Grid_vdw_energy:          -56.470627
##########                      Grid_es_energy:            0.258054
##########           Internal_energy_repulsive:           30.243303

@<TRIPOS>MOLECULE
oleObject80.pdb
 94 99 1 0 0
SMALL
NO_CHARGES


@<TRIPOS>ATOM
      1 C         -11.1974    4.0500   57.9272 C.ar    1  UNL        -0.0620
      2 C         -10.0679    3.3772   57.4400 C.ar    1  UNL        -0.0590
      3 C          -9.8176    2.0380   57.7974 C.ar    1  UNL        -0.0456
      4 C         -10.7162    1.3609   58.6607 C.ar    1  UNL        -0.0185
      5 C         -11.8505    2.0525   59.1413 C.ar    1  UNL        -0.0565
      6 C         -12.0900    3.3858   58.7778 C.ar    1  UNL        -0.0619
      7 C         -10.4637   -0.0998   59.0753 C.3     1  UNL         0.0931
      8 C          -9.9264   -0.2549   60.5092 C.ar    1  UNL         0.0683
      9 C          -9.2811   -1.4435   60.9355 C.ar    1  UNL        -0.0272
     10 C          -8.8204   -1.5173   62.2635 C.ar    1  UNL        -0.0559
     11 C          -9.0084   -0.4191   63.1148 C.ar    1  UNL        -0.0435
     12 C          -9.6489    0.7211   62.6085 C.ar    1  UNL         0.0272
     13 N         -10.0929    0.8013   61.3404 N.ar    1  UNL        -0.2587
     14 C          -9.0708   -2.6342   60.0066 C.3     1  UNL        -0.0379
     15 N         -11.5908   -1.0245   58.7605 N.am    1  UNL        -0.2918
     16 C         -11.6011   -1.7502   57.5638 C.2     1  UNL         0.2180
     17 O         -10.5903   -1.8500   56.8875 O.2     1  UNL        -0.2772
     18 C         -12.8097   -2.6876   57.3164 C.3     1  UNL         0.0385
     19 C         -12.3896   -4.0031   56.6156 C.3     1  UNL        -0.0289
     20 C         -12.0414   -3.7776   55.1301 C.3     1  UNL        -0.0010
     21 N         -13.1690   -3.1685   54.3926 N.4     1  UNL        -0.3010
     22 C         -13.6296   -1.8906   54.9871 C.3     1  UNL        -0.0010
     23 C         -13.9441   -2.0135   56.4996 C.3     1  UNL        -0.0289
     24 C         -12.8897   -3.0957   52.9412 C.3     1  UNL         0.0222
     25 C         -11.4846   -2.5511   52.6118 C.3     1  UNL         0.0661
     26 O         -11.4599   -1.1572   52.9675 O.3     1  UNL        -0.3432
     27 C         -10.3564   -0.3441   52.7938 C.ar    1  UNL         0.0937
     28 C          -9.0816   -0.8654   52.4931 C.ar    1  UNL        -0.0284
     29 C          -7.9861   -0.0022   52.3262 C.ar    1  UNL        -0.0381
     30 C          -8.1442    1.3896   52.4416 C.ar    1  UNL         0.0319
     31 C          -9.4137    1.9071   52.7638 C.ar    1  UNL        -0.0194
     32 C         -10.5124    1.0485   52.9332 C.ar    1  UNL         0.0727
     33 CL        -12.0736    1.7424   53.3298 Cl      1  UNL        -0.0814
     34 N          -7.0264    2.2072   52.2854 N.pl3   1  UNL        -0.3136
     35 C          -5.8467    2.0360   51.5617 C.ar    1  UNL         0.0489
     36 C          -5.8966    1.4622   50.2790 C.ar    1  UNL         0.0488
     37 N          -4.8062    1.2797   49.5079 N.ar    1  UNL        -0.2543
     38 C          -3.5911    1.6697   49.9522 C.ar    1  UNL         0.0703
     39 C          -3.4585    2.2742   51.2293 C.ar    1  UNL        -0.0339
     40 C          -4.5926    2.4627   52.0354 C.ar    1  UNL        -0.0371
     41 C          -2.4220    1.4383   49.0323 C.ar    1  UNL         0.0009
     42 C          -1.0914    1.3725   49.5221 C.ar    1  UNL        -0.0402
     43 C           0.0124    1.1568   48.6707 C.ar    1  UNL         0.0375
     44 C          -0.2175    1.0031   47.2877 C.ar    1  UNL        -0.0496
     45 C          -1.5207    1.0688   46.7754 C.ar    1  UNL        -0.0608
     46 C          -2.6076    1.2852   47.6344 C.ar    1  UNL        -0.0528
     47 C           1.4018    1.0995   49.2584 C.2     1  UNL         0.2403
     48 O           1.6155    1.2579   50.4470 O.2     1  UNL        -0.2722
     49 N           2.4487    0.8562   48.3947 N.am    1  UNL        -0.3251
     50 C         -12.6348   -1.1965   59.7957 C.3     1  UNL         0.0037
     51 C          -8.5747    1.3557   57.2332 C.3     1  UNL        -0.0394
     52 H         -11.3807    5.0826   57.6441 H       1  UNL         0.0623
     53 H          -9.3836    3.9021   56.7794 H       1  UNL         0.0626
     54 H         -12.5627    1.5594   59.7953 H       1  UNL         0.0627
     55 H         -12.9680    3.9023   59.1549 H       1  UNL         0.0623
     56 H          -9.6341   -0.4216   58.4408 H       1  UNL         0.0626
     57 H          -8.3242   -2.4111   62.6309 H       1  UNL         0.0627
     58 H          -8.6631   -0.4493   64.1440 H       1  UNL         0.0639
     59 H          -9.8120    1.5965   63.2359 H       1  UNL         0.0840
     60 H         -10.0280   -3.1017   59.7442 H       1  UNL         0.0280
     61 H          -8.4455   -3.4056   60.4732 H       1  UNL         0.0280
     62 H          -8.5734   -2.3305   59.0771 H       1  UNL         0.0280
     63 H         -13.2389   -2.9386   58.2932 H       1  UNL         0.0402
     64 H         -13.2161   -4.7228   56.6782 H       1  UNL         0.0288
     65 H         -11.5380   -4.4642   57.1274 H       1  UNL         0.0288
     66 H         -11.7821   -4.7458   54.6826 H       1  UNL         0.0431
     67 H         -11.1557   -3.1314   55.0607 H       1  UNL         0.0431
     68 H         -14.5396   -1.5422   54.4847 H       1  UNL         0.0431
     69 H         -12.8615   -1.1219   54.8358 H       1  UNL         0.0431
     70 H         -14.8566   -2.6136   56.6108 H       1  UNL         0.0288
     71 H         -14.1712   -1.0234   56.9151 H       1  UNL         0.0288
     72 H         -13.6240   -2.4321   52.4661 H       1  UNL         0.0455
     73 H         -13.0029   -4.0897   52.4891 H       1  UNL         0.0455
     74 H         -11.2745   -2.6685   51.5418 H       1  UNL         0.0586
     75 H         -10.7338   -3.1043   53.1903 H       1  UNL         0.0586
     76 H          -8.9260   -1.9341   52.3881 H       1  UNL         0.0652
     77 H          -7.0093   -0.4184   52.0958 H       1  UNL         0.0644
     78 H          -9.5524    2.9742   52.9056 H       1  UNL         0.0659
     79 H          -7.0760    3.0797   52.7958 H       1  UNL         0.1528
     80 H          -6.8429    1.1275   49.8561 H       1  UNL         0.0861
     81 H          -2.4907    2.5886   51.6043 H       1  UNL         0.0646
     82 H          -4.4922    2.9491   53.0007 H       1  UNL         0.0644
     83 H          -0.9055    1.5086   50.5818 H       1  UNL         0.0638
     84 H           0.6041    0.8348   46.5985 H       1  UNL         0.0631
     85 H          -1.6902    0.9504   45.7088 H       1  UNL         0.0623
     86 H          -3.6054    1.3243   47.2067 H       1  UNL         0.0630
     87 H           3.3954    0.8097   48.7466 H       1  UNL         0.1458
     88 H           2.2526    0.7246   47.4105 H       1  UNL         0.1458
     89 H         -12.5087   -0.4906   60.6232 H       1  UNL         0.0433
     90 H         -12.5906   -2.2095   60.2122 H       1  UNL         0.0433
     91 H         -13.6236   -1.0342   59.3488 H       1  UNL         0.0433
     92 H          -8.0217    2.0164   56.5540 H       1  UNL         0.0280
     93 H          -8.8387    0.4562   56.6642 H       1  UNL         0.0280
     94 H          -7.8843    1.0627   58.0338 H       1  UNL         0.0280
@<TRIPOS>BOND
     1     1     2   ar
     2     1     6   ar
     3     1    52    1
     4     2     3   ar
     5     2    53    1
     6     3     4   ar
     7     3    51    1
     8     4     5   ar
     9     4     7    1
    10     5     6   ar
    11     5    54    1
    12     6    55    1
    13     7     8    1
    14     7    15    1
    15     7    56    1
    16     8     9   ar
    17     8    13   ar
    18     9    10   ar
    19     9    14    1
    20    10    11   ar
    21    10    57    1
    22    11    12   ar
    23    11    58    1
    24    12    13   ar
    25    12    59    1
    26    14    60    1
    27    14    61    1
    28    14    62    1
    29    15    16   am
    30    15    50    1
    31    16    17    2
    32    16    18    1
    33    18    19    1
    34    18    23    1
    35    18    63    1
    36    19    20    1
    37    19    64    1
    38    19    65    1
    39    20    21    1
    40    20    66    1
    41    20    67    1
    42    21    22    1
    43    21    24    1
    44    22    23    1
    45    22    68    1
    46    22    69    1
    47    23    70    1
    48    23    71    1
    49    24    25    1
    50    24    72    1
    51    24    73    1
    52    25    26    1
    53    25    74    1
    54    25    75    1
    55    26    27    1
    56    27    28   ar
    57    27    32   ar
    58    28    29   ar
    59    28    76    1
    60    29    30   ar
    61    29    77    1
    62    30    31   ar
    63    30    34    1
    64    31    32   ar
    65    31    78    1
    66    32    33    1
    67    34    35    1
    68    34    79    1
    69    35    36   ar
    70    35    40   ar
    71    36    37   ar
    72    36    80    1
    73    37    38   ar
    74    38    39   ar
    75    38    41    1
    76    39    40   ar
    77    39    81    1
    78    40    82    1
    79    41    42   ar
    80    41    46   ar
    81    42    43   ar
    82    42    83    1
    83    43    44   ar
    84    43    47    1
    85    44    45   ar
    86    44    84    1
    87    45    46   ar
    88    45    85    1
    89    46    86    1
    90    47    48    2
    91    47    49   am
    92    49    87    1
    93    49    88    1
    94    50    89    1
    95    50    90    1
    96    50    91    1
    97    51    92    1
    98    51    93    1
    99    51    94    1
@<TRIPOS>SUBSTRUCTURE
     1 UNL         1 TEMP              0 ****  ****    0 ROOT


##########                                Name:     oleObject79.pdb
##########                DOCK_Rotatable_Bonds:                  12
##########                         Heavy_Atoms:                  53
##########                    Molecular_Weight:             725.376
##########                DOCK_Rotatable_Bonds:                  12
##########                       Formal_Charge:          0.00050066
##########                     HBond_Acceptors:                   8
##########                        HBond_Donors:                   4
##########                         Heavy_Atoms:                  53
##########                          Grid_Score:          -46.863132
##########                     Grid_vdw_energy:          -46.676006
##########                      Grid_es_energy:           -0.187126
##########           Internal_energy_repulsive:           59.257351

@<TRIPOS>MOLECULE
oleObject79.pdb
 102 108 1 0 0
SMALL
NO_CHARGES


@<TRIPOS>ATOM
      1 C         -13.4071   -3.0252   56.1291 C.ar    1  UNL        -0.0620
      2 C         -14.1487   -1.9404   56.6172 C.ar    1  UNL        -0.0590
      3 C         -13.5343   -0.9358   57.3904 C.ar    1  UNL        -0.0456
      4 C         -12.1460   -1.0192   57.6780 C.ar    1  UNL        -0.0185
      5 C         -11.4168   -2.1193   57.1769 C.ar    1  UNL        -0.0565
      6 C         -12.0390   -3.1146   56.4099 C.ar    1  UNL        -0.0619
      7 C         -11.4071    0.0769   58.4724 C.3     1  UNL         0.0931
      8 C         -11.8023    0.1857   59.9570 C.ar    1  UNL         0.0683
      9 C         -11.7425    1.4232   60.6478 C.ar    1  UNL        -0.0272
     10 C         -12.1178    1.4533   62.0042 C.ar    1  UNL        -0.0559
     11 C         -12.5381    0.2681   62.6243 C.ar    1  UNL        -0.0435
     12 C         -12.5694   -0.9113   61.8662 C.ar    1  UNL         0.0272
     13 N         -12.2111   -0.9502   60.5694 N.ar    1  UNL        -0.2587
     14 C         -11.2865    2.7126   59.9726 C.3     1  UNL        -0.0379
     15 N          -9.9391    0.0296   58.2233 N.am    1  UNL        -0.2918
     16 C          -9.3474    0.9103   57.3150 C.2     1  UNL         0.2179
     17 O          -8.1421    1.0962   57.3396 O.2     1  UNL        -0.2772
     18 C         -10.2943    1.9132   56.6024 C.3     1  UNL         0.0361
     19 C         -11.2099    1.2415   55.5392 C.3     1  UNL        -0.0412
     20 C         -10.4649    0.8320   54.2386 C.3     1  UNL        -0.0453
     21 C          -9.6103    1.9682   53.6014 C.3     1  UNL        -0.0139
     22 C          -8.6744    1.3391   52.5323 C.3     1  UNL         0.0171
     23 N          -7.9100    2.3809   51.8168 N.pl3   1  UNL        -0.3290
     24 C          -8.7514    3.3433   51.0788 C.3     1  UNL         0.0115
     25 C          -9.7566    4.0308   52.0327 C.3     1  UNL        -0.0368
     26 C         -10.5390    3.0016   52.8868 C.3     1  UNL        -0.0446
     27 C          -6.5207    2.3048   51.6719 C.ar    1  UNL         0.0476
     28 C          -5.7256    3.3661   52.1467 C.ar    1  UNL        -0.0375
     29 C          -4.3305    3.3468   51.9963 C.ar    1  UNL        -0.0388
     30 C          -3.6979    2.2756   51.3470 C.ar    1  UNL         0.0318
     31 C          -4.4828    1.2031   50.8854 C.ar    1  UNL        -0.0202
     32 C          -5.8798    1.2142   51.0374 C.ar    1  UNL         0.0636
     33 CL         -6.7676   -0.1352   50.3504 Cl      1  UNL        -0.0822
     34 N          -2.3108    2.2909   51.2158 N.pl3   1  UNL        -0.3149
     35 C          -1.4752    1.8683   50.1833 C.ar    1  UNL         0.0302
     36 C          -1.9288    1.7342   48.8581 C.ar    1  UNL        -0.0402
     37 C          -1.0505    1.3312   47.8396 C.ar    1  UNL        -0.0525
     38 C           0.3132    1.0558   48.1087 C.ar    1  UNL        -0.0182
     39 C           0.7570    1.2140   49.4451 C.ar    1  UNL        -0.0525
     40 C          -0.1213    1.6220   50.4623 C.ar    1  UNL        -0.0402
     41 C           1.2534    0.6243   47.0208 C.ar    1  UNL        -0.0177
     42 C           0.8501    0.6133   45.6611 C.ar    1  UNL        -0.0439
     43 C           1.7207    0.2076   44.6261 C.ar    1  UNL         0.0111
     44 C           3.0283   -0.1984   44.9639 C.ar    1  UNL        -0.0518
     45 C           3.4516   -0.1951   46.3007 C.ar    1  UNL        -0.0609
     46 C           2.5755    0.2122   47.3171 C.ar    1  UNL        -0.0543
     47 C           1.2970    0.2114   43.2933 C.2     1  UNL         0.1014
     48 N           2.1074    0.0303   42.3162 N.3     1  UNL        -0.2892
     49 N           0.0095    0.4135   42.9818 N.3     1  UNL        -0.2870
     50 C          -8.7302    2.6346   54.7044 C.3     1  UNL        -0.0453
     51 C          -9.5292    3.0906   55.9439 C.3     1  UNL        -0.0412
     52 C          -9.1359   -0.9501   58.9871 C.3     1  UNL         0.0037
     53 C         -14.3975    0.2264   57.8697 C.3     1  UNL        -0.0394
     54 H         -13.8896   -3.7924   55.5314 H       1  UNL         0.0623
     55 H         -15.2083   -1.8776   56.3869 H       1  UNL         0.0626
     56 H         -10.3549   -2.2064   57.3812 H       1  UNL         0.0627
     57 H         -11.4595   -3.9517   56.0319 H       1  UNL         0.0623
     58 H         -11.7412    1.0294   58.0580 H       1  UNL         0.0626
     59 H         -12.0858    2.3804   62.5696 H       1  UNL         0.0627
     60 H         -12.8345    0.2630   63.6691 H       1  UNL         0.0639
     61 H         -12.8912   -1.8533   62.3086 H       1  UNL         0.0840
     62 H         -10.2543    2.6281   59.6117 H       1  UNL         0.0280
     63 H         -11.3207    3.5643   60.6633 H       1  UNL         0.0280
     64 H         -11.9266    2.9619   59.1174 H       1  UNL         0.0280
     65 H         -10.9523    2.3250   57.3773 H       1  UNL         0.0401
     66 H         -12.0140    1.9408   55.2771 H       1  UNL         0.0275
     67 H         -11.7022    0.3621   55.9741 H       1  UNL         0.0275
     68 H         -11.1951    0.4590   53.5088 H       1  UNL         0.0273
     69 H          -9.8128   -0.0219   54.4564 H       1  UNL         0.0273
     70 H          -9.2734    0.7685   51.8106 H       1  UNL         0.0474
     71 H          -7.9901    0.6354   53.0241 H       1  UNL         0.0474
     72 H          -9.3089    2.8074   50.3000 H       1  UNL         0.0468
     73 H          -8.1364    4.1014   50.5785 H       1  UNL         0.0468
     74 H         -10.4606    4.6361   51.4482 H       1  UNL         0.0283
     75 H          -9.2228    4.7268   52.6905 H       1  UNL         0.0283
     76 H         -11.2230    2.4622   52.2185 H       1  UNL         0.0273
     77 H         -11.1736    3.5308   53.6069 H       1  UNL         0.0273
     78 H          -6.1901    4.2121   52.6447 H       1  UNL         0.0644
     79 H          -3.7404    4.1776   52.3729 H       1  UNL         0.0643
     80 H          -4.0121    0.3496   50.4074 H       1  UNL         0.0659
     81 H          -1.8230    2.6995   52.0026 H       1  UNL         0.1528
     82 H          -2.9590    1.9590   48.6043 H       1  UNL         0.0643
     83 H          -1.4419    1.2218   46.8330 H       1  UNL         0.0630
     84 H           1.7982    1.0402   49.6980 H       1  UNL         0.0630
     85 H           0.2529    1.7413   51.4752 H       1  UNL         0.0643
     86 H          -0.1556    0.9338   45.4074 H       1  UNL         0.0637
     87 H           3.7280   -0.5065   44.1918 H       1  UNL         0.0630
     88 H           4.4610   -0.5100   46.5500 H       1  UNL         0.0623
     89 H           2.9238    0.1884   48.3450 H       1  UNL         0.0629
     90 H           1.7596    0.4852   41.4694 H       1  UNL         0.1889
     91 H          -0.3306    1.3592   42.8173 H       1  UNL         0.1258
     92 H          -0.4431   -0.1951   42.3021 H       1  UNL         0.1258
     93 H          -8.1739    3.4901   54.3054 H       1  UNL         0.0273
     94 H          -7.9709    1.9142   55.0295 H       1  UNL         0.0273
     95 H         -10.2434    3.8709   55.6549 H       1  UNL         0.0275
     96 H          -8.8496    3.5664   56.6585 H       1  UNL         0.0275
     97 H          -8.5152   -1.5528   58.3148 H       1  UNL         0.0433
     98 H          -9.7735   -1.6357   59.5568 H       1  UNL         0.0433
     99 H          -8.4834   -0.4150   59.6881 H       1  UNL         0.0433
    100 H         -15.4540    0.0831   57.6111 H       1  UNL         0.0280
    101 H         -14.0753    1.1698   57.4112 H       1  UNL         0.0280
    102 H         -14.3420    0.3373   58.9599 H       1  UNL         0.0280
@<TRIPOS>BOND
     1     1     2   ar
     2     1     6   ar
     3     1    54    1
     4     2     3   ar
     5     2    55    1
     6     3     4   ar
     7     3    53    1
     8     4     5   ar
     9     4     7    1
    10     5     6   ar
    11     5    56    1
    12     6    57    1
    13     7     8    1
    14     7    15    1
    15     7    58    1
    16     8     9   ar
    17     8    13   ar
    18     9    10   ar
    19     9    14    1
    20    10    11   ar
    21    10    59    1
    22    11    12   ar
    23    11    60    1
    24    12    13   ar
    25    12    61    1
    26    14    62    1
    27    14    63    1
    28    14    64    1
    29    15    16   am
    30    15    52    1
    31    16    17    2
    32    16    18    1
    33    18    19    1
    34    18    51    1
    35    18    65    1
    36    19    20    1
    37    19    66    1
    38    19    67    1
    39    20    21    1
    40    20    68    1
    41    20    69    1
    42    21    22    1
    43    21    26    1
    44    21    50    1
    45    22    23    1
    46    22    70    1
    47    22    71    1
    48    23    24    1
    49    23    27    1
    50    24    25    1
    51    24    72    1
    52    24    73    1
    53    25    26    1
    54    25    74    1
    55    25    75    1
    56    26    76    1
    57    26    77    1
    58    27    28   ar
    59    27    32   ar
    60    28    29   ar
    61    28    78    1
    62    29    30   ar
    63    29    79    1
    64    30    31   ar
    65    30    34    1
    66    31    32   ar
    67    31    80    1
    68    32    33    1
    69    34    35    1
    70    34    81    1
    71    35    36   ar
    72    35    40   ar
    73    36    37   ar
    74    36    82    1
    75    37    38   ar
    76    37    83    1
    77    38    39   ar
    78    38    41    1
    79    39    40   ar
    80    39    84    1
    81    40    85    1
    82    41    42   ar
    83    41    46   ar
    84    42    43   ar
    85    42    86    1
    86    43    44   ar
    87    43    47    1
    88    44    45   ar
    89    44    87    1
    90    45    46   ar
    91    45    88    1
    92    46    89    1
    93    47    48    1
    94    47    49    1
    95    48    90    1
    96    49    91    1
    97    49    92    1
    98    50    51    1
    99    50    93    1
   100    50    94    1
   101    51    95    1
   102    51    96    1
   103    52    97    1
   104    52    98    1
   105    52    99    1
   106    53   100    1
   107    53   101    1
   108    53   102    1
@<TRIPOS>SUBSTRUCTURE
     1 UNL         1 TEMP              0 ****  ****    0 ROOT


##########                                Name:     oleObject52.pdb
##########                DOCK_Rotatable_Bonds:                  10
##########                         Heavy_Atoms:                  38
##########                    Molecular_Weight:              533.07
##########                DOCK_Rotatable_Bonds:                  10
##########                       Formal_Charge:         0.000300027
##########                     HBond_Acceptors:                   8
##########                        HBond_Donors:                   0
##########                         Heavy_Atoms:                  38
##########                          Grid_Score:          -45.134468
##########                     Grid_vdw_energy:          -44.674637
##########                      Grid_es_energy:           -0.459833
##########           Internal_energy_repulsive:           69.506332

@<TRIPOS>MOLECULE
oleObject52.pdb
 71 74 1 0 0
SMALL
NO_CHARGES


@<TRIPOS>ATOM
      1 C         -15.1031   -0.0031   50.2391 C.ar    1  UNL        -0.0596
      2 C         -14.0373    0.6820   50.8414 C.ar    1  UNL        -0.0314
      3 C         -13.1414    0.0009   51.6929 C.ar    1  UNL         0.0800
      4 C         -13.3162   -1.3809   51.9386 C.ar    1  UNL         0.0089
      5 C         -14.3968   -2.0549   51.3300 C.ar    1  UNL        -0.0541
      6 C         -15.2834   -1.3710   50.4847 C.ar    1  UNL        -0.0617
      7 C         -12.3398   -2.1144   52.8708 C.3     1  UNL         0.0953
      8 C         -10.9341   -1.4886   52.8591 C.ar    1  UNL         0.0684
      9 C         -10.5289   -0.5395   53.8310 C.ar    1  UNL        -0.0272
     10 C          -9.2217   -0.0225   53.7588 C.ar    1  UNL        -0.0559
     11 C          -8.3684   -0.4611   52.7361 C.ar    1  UNL        -0.0435
     12 C          -8.8500   -1.4063   51.8183 C.ar    1  UNL         0.0272
     13 N         -10.0981   -1.9066   51.8788 N.ar    1  UNL        -0.2587
     14 C         -11.4519   -0.0776   54.9521 C.3     1  UNL        -0.0379
     15 N         -12.8812   -2.3864   54.2330 N.am    1  UNL        -0.2917
     16 C         -12.2317   -3.2885   55.0825 C.2     1  UNL         0.2180
     17 O         -11.0963   -3.6595   54.8352 O.2     1  UNL        -0.2772
     18 C         -12.8529   -3.5204   56.4837 C.3     1  UNL         0.0385
     19 C         -12.5813   -2.3364   57.4431 C.3     1  UNL        -0.0289
     20 C         -11.1171   -2.3095   57.9322 C.3     1  UNL        -0.0010
     21 N         -10.7400   -3.5820   58.5901 N.4     1  UNL        -0.3010
     22 C         -10.9440   -4.7613   57.7204 C.3     1  UNL        -0.0010
     23 C         -12.3810   -4.8408   57.1486 C.3     1  UNL        -0.0289
     24 C          -9.3856   -3.5810   59.1864 C.3     1  UNL         0.0222
     25 C          -9.3573   -3.0850   60.6469 C.3     1  UNL         0.0661
     26 O          -8.9941   -1.6930   60.6308 O.3     1  UNL        -0.3432
     27 C          -9.1758   -0.8427   61.7043 C.ar    1  UNL         0.0937
     28 C          -8.6435   -1.1238   62.9802 C.ar    1  UNL        -0.0289
     29 C          -8.8515   -0.2319   64.0455 C.ar    1  UNL        -0.0417
     30 C          -9.5912    0.9468   63.8479 C.ar    1  UNL         0.0537
     31 C         -10.1228    1.2308   62.5786 C.ar    1  UNL        -0.0230
     32 C          -9.9164    0.3408   61.5114 C.ar    1  UNL         0.0721
     33 CL        -10.5960    0.7302   59.9424 Cl      1  UNL        -0.0814
     34 C          -9.8025    1.8560   64.9374 C.1     1  UNL         0.0992
     35 N          -9.9683    2.5818   65.8223 N.1     1  UNL        -0.1924
     36 C         -14.1336   -1.6949   54.6088 C.3     1  UNL         0.0037
     37 O         -12.0873    0.6567   52.3059 O.3     1  UNL        -0.3490
     38 C         -11.8126    2.0578   52.1387 C.3     1  UNL         0.0422
     39 H         -15.7894    0.5268   49.5848 H       1  UNL         0.0624
     40 H         -13.9192    1.7412   50.6393 H       1  UNL         0.0651
     41 H         -14.5588   -3.1126   51.5075 H       1  UNL         0.0627
     42 H         -16.1098   -1.9020   50.0212 H       1  UNL         0.0623
     43 H         -12.2220   -3.1030   52.4133 H       1  UNL         0.0627
     44 H          -8.8701    0.7035   54.4862 H       1  UNL         0.0627
     45 H          -7.3542   -0.0810   52.6585 H       1  UNL         0.0639
     46 H          -8.2180   -1.7764   51.0121 H       1  UNL         0.0840
     47 H         -12.4173    0.2567   54.5577 H       1  UNL         0.0280
     48 H         -11.0204    0.7603   55.5136 H       1  UNL         0.0280
     49 H         -11.6398   -0.8911   55.6641 H       1  UNL         0.0280
     50 H         -13.9366   -3.6141   56.3577 H       1  UNL         0.0402
     51 H         -13.2402   -2.4269   58.3164 H       1  UNL         0.0288
     52 H         -12.8326   -1.3832   56.9639 H       1  UNL         0.0288
     53 H         -11.0114   -1.4687   58.6275 H       1  UNL         0.0431
     54 H         -10.4526   -2.1237   57.0779 H       1  UNL         0.0431
     55 H         -10.7464   -5.6794   58.2885 H       1  UNL         0.0431
     56 H         -10.2242   -4.7329   56.8927 H       1  UNL         0.0431
     57 H         -13.0644   -5.0803   57.9736 H       1  UNL         0.0288
     58 H         -12.4533   -5.6708   56.4342 H       1  UNL         0.0288
     59 H          -8.7122   -2.9580   58.5832 H       1  UNL         0.0455
     60 H          -8.9866   -4.6037   59.1749 H       1  UNL         0.0455
     61 H          -8.6179   -3.6644   61.2144 H       1  UNL         0.0586
     62 H         -10.3444   -3.2086   61.1085 H       1  UNL         0.0586
     63 H          -8.0684   -2.0267   63.1587 H       1  UNL         0.0651
     64 H          -8.4366   -0.4585   65.0244 H       1  UNL         0.0638
     65 H         -10.6959    2.1402   62.4178 H       1  UNL         0.0653
     66 H         -14.7340   -1.4684   53.7204 H       1  UNL         0.0433
     67 H         -13.9023   -0.7582   55.1306 H       1  UNL         0.0433
     68 H         -14.7446   -2.3343   55.2564 H       1  UNL         0.0433
     69 H         -10.9336    2.3366   52.7326 H       1  UNL         0.0535
     70 H         -12.6659    2.6590   52.4776 H       1  UNL         0.0535
     71 H         -11.6064    2.2856   51.0853 H       1  UNL         0.0535
@<TRIPOS>BOND
     1     1     2   ar
     2     1     6   ar
     3     1    39    1
     4     2     3   ar
     5     2    40    1
     6     3     4   ar
     7     3    37    1
     8     4     5   ar
     9     4     7    1
    10     5     6   ar
    11     5    41    1
    12     6    42    1
    13     7     8    1
    14     7    15    1
    15     7    43    1
    16     8     9   ar
    17     8    13   ar
    18     9    10   ar
    19     9    14    1
    20    10    11   ar
    21    10    44    1
    22    11    12   ar
    23    11    45    1
    24    12    13   ar
    25    12    46    1
    26    14    47    1
    27    14    48    1
    28    14    49    1
    29    15    16   am
    30    15    36    1
    31    16    17    2
    32    16    18    1
    33    18    19    1
    34    18    23    1
    35    18    50    1
    36    19    20    1
    37    19    51    1
    38    19    52    1
    39    20    21    1
    40    20    53    1
    41    20    54    1
    42    21    22    1
    43    21    24    1
    44    22    23    1
    45    22    55    1
    46    22    56    1
    47    23    57    1
    48    23    58    1
    49    24    25    1
    50    24    59    1
    51    24    60    1
    52    25    26    1
    53    25    61    1
    54    25    62    1
    55    26    27    1
    56    27    28   ar
    57    27    32   ar
    58    28    29   ar
    59    28    63    1
    60    29    30   ar
    61    29    64    1
    62    30    31   ar
    63    30    34    1
    64    31    32   ar
    65    31    65    1
    66    32    33    1
    67    34    35    3
    68    36    66    1
    69    36    67    1
    70    36    68    1
    71    37    38    1
    72    38    69    1
    73    38    70    1
    74    38    71    1
@<TRIPOS>SUBSTRUCTURE
     1 UNL         1 TEMP              0 ****  ****    0 ROOT


##########                                Name:    ZINC001596273020
##########                DOCK_Rotatable_Bonds:                  11
##########                         Heavy_Atoms:                  25
##########                    Molecular_Weight:             355.478
##########                DOCK_Rotatable_Bonds:                  11
##########                       Formal_Charge:          -0.0499996
##########                     HBond_Acceptors:                   7
##########                        HBond_Donors:                   2
##########                         Heavy_Atoms:                  25
##########                          Grid_Score:          -43.270744
##########                     Grid_vdw_energy:          -37.703110
##########                      Grid_es_energy:           -5.567636
##########           Internal_energy_repulsive:           22.534323

@<TRIPOS>MOLECULE
ZINC001596273020
 58 59 1 0 0
SMALL
USER_CHARGES


@<TRIPOS>ATOM
      1 C1        -11.2019    2.0631   62.3943 C.3     1  ZINC001596273020   -0.1900
      2 C2        -10.4733    1.3771   63.5517 C.3     1  ZINC001596273020   -0.0200
      3 N3         -9.4254    0.4969   63.0177 N.4     1  ZINC001596273020   -0.3900
      4 H4         -8.8033    1.0323   62.4308 H       1  ZINC001596273020    0.4300
      5 C5         -8.6655   -0.0902   64.1294 C.3     1  ZINC001596273020   -0.0100
      6 C6         -8.0264    1.0271   64.9563 C.3     1  ZINC001596273020   -0.1900
      7 C7        -10.0430   -0.5756   62.2264 C.3     1  ZINC001596273020   -0.0100
      8 C8         -8.9526   -1.5003   61.6816 C.3     1  ZINC001596273020    0.0300
      9 O9         -9.5400   -2.4657   60.8069 O.3     1  ZINC001596273020   -0.3900
     10 C10        -8.5890   -3.2395   60.0728 C.3     1  ZINC001596273020    0.0500
     11 C11        -9.3222   -4.2963   59.2443 C.3     1  ZINC001596273020    0.1400
     12 N12       -10.3718   -3.6528   58.4503 N.am    1  ZINC001596273020   -0.7500
     13 C13       -11.2051   -4.4018   57.7013 C.2     1  ZINC001596273020    0.7200
     14 O14       -11.0848   -5.6116   57.6834 O.2     1  ZINC001596273020   -0.6000
     15 N15       -12.1717   -3.8099   56.9721 N.am    1  ZINC001596273020   -0.6300
     16 C16       -12.4669   -2.3601   56.8603 C.3     1  ZINC001596273020    0.1100
     17 C17       -12.7726   -2.1654   55.3471 C.3     1  ZINC001596273020   -0.0800
     18 H18       -13.5159   -1.3782   55.2203 H       1  ZINC001596273020    0.1200
     19 C19       -11.4788   -1.7615   54.6688 C.3     1  ZINC001596273020   -0.1000
     20 C20       -11.4055   -2.2141   53.2172 C.3     1  ZINC001596273020   -0.1200
     21 C21       -11.5457   -3.7418   53.1878 C.3     1  ZINC001596273020   -0.1200
     22 C22       -12.9731   -4.0822   53.6042 C.3     1  ZINC001596273020   -0.0800
     23 C23       -13.3578   -3.4937   54.9207 C.3     1  ZINC001596273020   -0.1400
     24 C24       -14.8460   -3.2678   54.8487 C.2     1  ZINC001596273020    0.5000
     25 O25       -15.5200   -3.8954   54.0497 O.co2   1  ZINC001596273020   -0.6900
     26 O26       -15.3761   -2.4571   55.5893 O.co2   1  ZINC001596273020   -0.6900
     27 C27       -13.1759   -4.4606   56.0957 C.3     1  ZINC001596273020    0.1600
     28 H28       -10.5167    2.7400   61.8840 H       1  ZINC001596273020    0.0800
     29 H29       -11.5585    1.3097   61.6920 H       1  ZINC001596273020    0.0800
     30 H30       -12.0492    2.6283   62.7825 H       1  ZINC001596273020    0.1000
     31 H31       -10.0209    2.1321   64.1946 H       1  ZINC001596273020    0.1300
     32 H32       -11.1843    0.7865   64.1294 H       1  ZINC001596273020    0.1300
     33 H33        -9.3368   -0.6716   64.7613 H       1  ZINC001596273020    0.1300
     34 H34        -7.8856   -0.7404   63.7330 H       1  ZINC001596273020    0.1300
     35 H35        -7.2741    1.5387   64.3560 H       1  ZINC001596273020    0.0800
     36 H36        -8.7941    1.7387   65.2604 H       1  ZINC001596273020    0.0800
     37 H37        -7.5557    0.5999   65.8419 H       1  ZINC001596273020    0.1000
     38 H38       -10.7226   -1.1478   62.8578 H       1  ZINC001596273020    0.1400
     39 H39       -10.5987   -0.1403   61.3956 H       1  ZINC001596273020    0.1400
     40 H40        -8.2181   -0.9116   61.1320 H       1  ZINC001596273020    0.1000
     41 H41        -8.4623   -2.0114   62.5100 H       1  ZINC001596273020    0.0700
     42 H42        -8.0234   -2.5855   59.4090 H       1  ZINC001596273020    0.0700
     43 H43        -7.9070   -3.7306   60.7668 H       1  ZINC001596273020    0.0700
     44 H44        -8.6150   -4.7912   58.5788 H       1  ZINC001596273020    0.0900
     45 H45        -9.7708   -5.0332   59.9105 H       1  ZINC001596273020    0.0700
     46 H46       -10.4671   -2.6876   58.4637 H       1  ZINC001596273020    0.3900
     47 H47       -13.3357   -2.0978   57.4640 H       1  ZINC001596273020    0.0700
     48 H48       -11.6004   -1.7684   57.1557 H       1  ZINC001596273020    0.0600
     49 H49       -11.3880   -0.6758   54.7034 H       1  ZINC001596273020    0.0500
     50 H50       -10.6439   -2.1993   55.2159 H       1  ZINC001596273020    0.0400
     51 H51       -12.2161   -1.7588   52.6482 H       1  ZINC001596273020    0.0700
     52 H52       -10.4461   -1.9239   52.7891 H       1  ZINC001596273020    0.0500
     53 H53       -11.3565   -4.1111   52.1798 H       1  ZINC001596273020    0.0600
     54 H54       -10.8397   -4.1915   53.8859 H       1  ZINC001596273020    0.0500
     55 H55       -13.6578   -3.7128   52.8407 H       1  ZINC001596273020    0.0600
     56 H56       -13.0712   -5.1662   53.6635 H       1  ZINC001596273020    0.0600
     57 H57       -12.8093   -5.4240   55.7415 H       1  ZINC001596273020    0.0700
     58 H58       -14.1155   -4.5852   56.6340 H       1  ZINC001596273020    0.0700
@<TRIPOS>BOND
     1     1     2    1
     2     1    28    1
     3     1    29    1
     4     1    30    1
     5     2     3    1
     6     2    31    1
     7     2    32    1
     8     3     4    1
     9     3     5    1
    10     3     7    1
    11     5     6    1
    12     5    33    1
    13     5    34    1
    14     6    35    1
    15     6    36    1
    16     6    37    1
    17     7     8    1
    18     7    38    1
    19     7    39    1
    20     8     9    1
    21     8    40    1
    22     8    41    1
    23     9    10    1
    24    10    11    1
    25    10    42    1
    26    10    43    1
    27    11    12    1
    28    11    44    1
    29    11    45    1
    30    12    13   am
    31    12    46    1
    32    13    14    2
    33    13    15   am
    34    15    27    1
    35    15    16    1
    36    16    17    1
    37    16    47    1
    38    16    48    1
    39    17    18    1
    40    17    23    1
    41    17    19    1
    42    19    20    1
    43    19    49    1
    44    19    50    1
    45    20    21    1
    46    20    51    1
    47    20    52    1
    48    21    22    1
    49    21    53    1
    50    21    54    1
    51    22    23    1
    52    22    55    1
    53    22    56    1
    54    23    24    1
    55    23    27    1
    56    24    25   ar
    57    24    26   ar
    58    27    57    1
    59    27    58    1
@<TRIPOS>SUBSTRUCTURE
     1 ZINC001596273020        1 TEMP              0 ****  ****    0 ROOT


##########                                Name:     oleObject14.pdb
##########                DOCK_Rotatable_Bonds:                   9
##########                         Heavy_Atoms:                  33
##########                    Molecular_Weight:             484.424
##########                DOCK_Rotatable_Bonds:                   9
##########                       Formal_Charge:         0.000299782
##########                     HBond_Acceptors:                   7
##########                        HBond_Donors:                   1
##########                         Heavy_Atoms:                  33
##########                          Grid_Score:          -42.218155
##########                     Grid_vdw_energy:          -41.985641
##########                      Grid_es_energy:           -0.232513
##########           Internal_energy_repulsive:            7.874727

@<TRIPOS>MOLECULE
oleObject14.pdb
 60 63 1 0 0
SMALL
NO_CHARGES


@<TRIPOS>ATOM
      1 C          -9.4823    0.4616   63.4293 C.ar    1  UNL         0.0422
      2 C          -8.7465   -0.7325   63.4871 C.ar    1  UNL        -0.0408
      3 C          -8.6576   -1.5600   62.3552 C.ar    1  UNL        -0.0288
      4 C          -9.3069   -1.1953   61.1562 C.ar    1  UNL         0.0937
      5 C         -10.0434    0.0059   61.1071 C.ar    1  UNL         0.0723
      6 C         -10.1306    0.8313   62.2405 C.ar    1  UNL        -0.0221
      7 CL        -10.8653    0.4972   59.6377 Cl      1  UNL        -0.0814
      8 O          -9.2442   -1.9807   60.0211 O.3     1  UNL        -0.3432
      9 C          -9.3668   -3.4140   60.0372 C.3     1  UNL         0.0661
     10 C          -9.6125   -3.8816   58.5877 C.3     1  UNL         0.0222
     11 N         -11.0316   -3.8034   58.1756 N.4     1  UNL        -0.3010
     12 C         -11.3944   -2.5482   57.4769 C.3     1  UNL        -0.0010
     13 C         -12.9073   -2.4747   57.1726 C.3     1  UNL        -0.0289
     14 C         -13.4250   -3.7098   56.3965 C.3     1  UNL         0.0382
     15 C         -12.9539   -5.0112   57.0933 C.3     1  UNL        -0.0289
     16 C         -11.4448   -5.0138   57.4329 C.3     1  UNL        -0.0010
     17 C         -13.0162   -3.6604   54.9035 C.2     1  UNL         0.2156
     18 O         -12.7232   -4.6662   54.2830 O.2     1  UNL        -0.2774
     19 N         -13.0226   -2.4484   54.2250 N.am    1  UNL        -0.3025
     20 C         -12.6683   -2.2042   52.8142 C.3     1  UNL         0.0900
     21 C         -13.7731   -1.4901   52.0378 C.ar    1  UNL        -0.0217
     22 C         -13.8888   -1.6296   50.6399 C.ar    1  UNL        -0.0568
     23 C         -14.9038   -0.9569   49.9401 C.ar    1  UNL        -0.0619
     24 C         -15.8136   -0.1421   50.6321 C.ar    1  UNL        -0.0622
     25 C         -15.7088   -0.0029   52.0249 C.ar    1  UNL        -0.0619
     26 C         -14.6937   -0.6757   52.7244 C.ar    1  UNL        -0.0568
     27 C         -11.3467   -1.4525   52.6868 C.ar    1  UNL         0.0652
     28 C         -11.2544   -0.0677   52.9370 C.ar    1  UNL        -0.0383
     29 C         -10.0115    0.5696   52.7943 C.ar    1  UNL        -0.0588
     30 C          -8.9039   -0.1996   52.4051 C.ar    1  UNL        -0.0438
     31 C          -9.0845   -1.5741   52.1740 C.ar    1  UNL         0.0272
     32 N         -10.2775   -2.1877   52.3103 N.ar    1  UNL        -0.2590
     33 CL         -9.5911    1.4904   64.8414 Cl      1  UNL        -0.0843
     34 H          -8.2448   -1.0178   64.4075 H       1  UNL         0.0639
     35 H          -8.0831   -2.4782   62.4224 H       1  UNL         0.0652
     36 H         -10.6997    1.7556   62.1968 H       1  UNL         0.0655
     37 H         -10.2055   -3.7108   60.6784 H       1  UNL         0.0586
     38 H          -8.4432   -3.8702   60.4159 H       1  UNL         0.0586
     39 H          -9.2727   -4.9229   58.5123 H       1  UNL         0.0455
     40 H          -8.9922   -3.2829   57.9078 H       1  UNL         0.0455
     41 H         -10.8315   -2.4717   56.5374 H       1  UNL         0.0431
     42 H         -11.1349   -1.6773   58.0898 H       1  UNL         0.0431
     43 H         -13.1266   -1.5562   56.6159 H       1  UNL         0.0288
     44 H         -13.4504   -2.4010   58.1237 H       1  UNL         0.0288
     45 H         -14.5159   -3.7073   56.4686 H       1  UNL         0.0402
     46 H         -13.1974   -5.8810   56.4699 H       1  UNL         0.0288
     47 H         -13.5156   -5.1303   58.0290 H       1  UNL         0.0288
     48 H         -10.8631   -5.0934   56.5060 H       1  UNL         0.0431
     49 H         -11.2267   -5.9083   58.0308 H       1  UNL         0.0431
     50 H         -13.4032   -1.6637   54.7383 H       1  UNL         0.1504
     51 H         -12.5105   -3.1880   52.3540 H       1  UNL         0.0624
     52 H         -13.1875   -2.2516   50.0915 H       1  UNL         0.0626
     53 H         -14.9840   -1.0663   48.8624 H       1  UNL         0.0623
     54 H         -16.5990    0.3779   50.0909 H       1  UNL         0.0623
     55 H         -16.4142    0.6245   52.5623 H       1  UNL         0.0623
     56 H         -14.6224   -0.5630   53.8027 H       1  UNL         0.0626
     57 H         -12.1280    0.5038   53.2356 H       1  UNL         0.0643
     58 H          -9.9095    1.6348   52.9806 H       1  UNL         0.0624
     59 H          -7.9263    0.2578   52.2842 H       1  UNL         0.0639
     60 H          -8.2488   -2.2032   51.8700 H       1  UNL         0.0840
@<TRIPOS>BOND
     1     1     2   ar
     2     1     6   ar
     3     1    33    1
     4     2     3   ar
     5     2    34    1
     6     3     4   ar
     7     3    35    1
     8     4     5   ar
     9     4     8    1
    10     5     6   ar
    11     5     7    1
    12     6    36    1
    13     8     9    1
    14     9    10    1
    15     9    37    1
    16     9    38    1
    17    10    11    1
    18    10    39    1
    19    10    40    1
    20    11    12    1
    21    11    16    1
    22    12    13    1
    23    12    41    1
    24    12    42    1
    25    13    14    1
    26    13    43    1
    27    13    44    1
    28    14    15    1
    29    14    17    1
    30    14    45    1
    31    15    16    1
    32    15    46    1
    33    15    47    1
    34    16    48    1
    35    16    49    1
    36    17    18    2
    37    17    19   am
    38    19    20    1
    39    19    50    1
    40    20    21    1
    41    20    27    1
    42    20    51    1
    43    21    22   ar
    44    21    26   ar
    45    22    23   ar
    46    22    52    1
    47    23    24   ar
    48    23    53    1
    49    24    25   ar
    50    24    54    1
    51    25    26   ar
    52    25    55    1
    53    26    56    1
    54    27    28   ar
    55    27    32   ar
    56    28    29   ar
    57    28    57    1
    58    29    30   ar
    59    29    58    1
    60    30    31   ar
    61    30    59    1
    62    31    32   ar
    63    31    60    1
@<TRIPOS>SUBSTRUCTURE
     1 UNL         1 TEMP              0 ****  ****    0 ROOT


##########                                Name:    ZINC000045927156
##########                DOCK_Rotatable_Bonds:                   7
##########                         Heavy_Atoms:                  30
##########                    Molecular_Weight:             418.522
##########                DOCK_Rotatable_Bonds:                   7
##########                       Formal_Charge:           0.0200001
##########                     HBond_Acceptors:                   8
##########                        HBond_Donors:                   1
##########                         Heavy_Atoms:                  30
##########                          Grid_Score:          -41.818562
##########                     Grid_vdw_energy:          -39.872063
##########                      Grid_es_energy:           -1.946499
##########           Internal_energy_repulsive:           15.292274

@<TRIPOS>MOLECULE
ZINC000045927156
 52 56 1 0 0
SMALL
USER_CHARGES


@<TRIPOS>ATOM
      1 O1        -10.6767   -3.5093   54.4199 O.2     1  ZINC000045927156   -0.5800
      2 C2        -11.7301   -2.9389   54.2114 C.2     1  ZINC000045927156    0.7300
      3 N3        -11.7939   -1.9564   53.2910 N.am    1  ZINC000045927156   -0.7400
      4 C4        -10.5926   -1.5716   52.5460 C.3     1  ZINC000045927156    0.1700
      5 C5        -10.6139   -0.0865   52.2909 C.ar    1  ZINC000045927156   -0.0700
      6 C6        -11.8182    0.5653   52.1037 C.ar    1  ZINC000045927156   -0.1000
      7 C7        -11.8378    1.9277   51.8697 C.ar    1  ZINC000045927156   -0.1100
      8 C8        -10.6531    2.6380   51.8233 C.ar    1  ZINC000045927156   -0.1100
      9 C9         -9.4484    1.9862   52.0115 C.ar    1  ZINC000045927156   -0.1000
     10 C10        -9.4291    0.6249   52.2497 C.ar    1  ZINC000045927156   -0.1000
     11 C11        -8.1160   -0.0857   52.4549 C.3     1  ZINC000045927156    0.1700
     12 N12        -7.0710    0.5855   51.6778 N.pl3   1  ZINC000045927156   -0.3800
     13 C13        -6.2919    1.6025   52.0850 C.2     1  ZINC000045927156    0.2500
     14 N14        -5.4875    1.9164   51.1020 N.2     1  ZINC000045927156   -0.5400
     15 C15        -5.7222    1.1254   50.0557 C.2     1  ZINC000045927156    0.2000
     16 N16        -6.6799    0.2900   50.3616 N.2     1  ZINC000045927156   -0.3100
     17 N17       -12.8352   -3.2929   54.8969 N.am    1  ZINC000045927156   -0.6200
     18 C18       -14.1722   -2.6913   54.7416 C.3     1  ZINC000045927156    0.1000
     19 C19       -15.1576   -3.7841   55.2259 C.3     1  ZINC000045927156   -0.1300
     20 C20       -14.3711   -4.4112   56.4072 C.3     1  ZINC000045927156   -0.1200
     21 C21       -12.9087   -4.3474   55.9187 C.3     1  ZINC000045927156    0.2300
     22 H22       -12.6189   -5.3068   55.4900 H       1  ZINC000045927156    0.1000
     23 C23       -11.9983   -4.0048   57.0698 C.2     1  ZINC000045927156    0.0900
     24 N24       -12.0769   -2.9261   57.7529 N.2     1  ZINC000045927156   -0.4500
     25 C25       -11.1960   -2.7516   58.7565 C.ar    1  ZINC000045927156    0.0800
     26 C26       -11.0573   -1.6751   59.6554 C.ar    1  ZINC000045927156   -0.0700
     27 C27       -10.0866   -1.6949   60.6108 C.ar    1  ZINC000045927156   -0.1100
     28 C28        -9.2181   -2.7717   60.7184 C.ar    1  ZINC000045927156   -0.1000
     29 C29        -9.3302   -3.8375   59.8539 C.ar    1  ZINC000045927156   -0.0700
     30 C30       -10.3168   -3.8345   58.8705 C.ar    1  ZINC000045927156   -0.1800
     31 S31       -10.7384   -5.0104   57.6295 S.3     1  ZINC000045927156    0.1200
     32 H32       -12.6352   -1.5042   53.1219 H       1  ZINC000045927156    0.3900
     33 H33        -9.7069   -1.8278   53.1274 H       1  ZINC000045927156    0.1000
     34 H34       -10.5691   -2.1034   51.5948 H       1  ZINC000045927156    0.0700
     35 H35       -12.7440    0.0102   52.1399 H       1  ZINC000045927156    0.1300
     36 H36       -12.7787    2.4369   51.7227 H       1  ZINC000045927156    0.1300
     37 H37       -10.6683    3.7022   51.6398 H       1  ZINC000045927156    0.1300
     38 H38        -8.5226    2.5411   51.9749 H       1  ZINC000045927156    0.1300
     39 H39        -7.8527   -0.0643   53.5123 H       1  ZINC000045927156    0.1100
     40 H40        -8.2071   -1.1202   52.1239 H       1  ZINC000045927156    0.1000
     41 H41        -6.3246    2.0779   53.0540 H       1  ZINC000045927156    0.2200
     42 H42        -5.2024    1.1652   49.1099 H       1  ZINC000045927156    0.2200
     43 H43       -14.2609   -1.7990   55.3611 H       1  ZINC000045927156    0.0700
     44 H44       -14.3596   -2.4482   53.6956 H       1  ZINC000045927156    0.0800
     45 H45       -16.0927   -3.3423   55.5698 H       1  ZINC000045927156    0.0900
     46 H46       -15.3398   -4.5205   54.4431 H       1  ZINC000045927156    0.0800
     47 H47       -14.5044   -3.8226   57.3149 H       1  ZINC000045927156    0.0900
     48 H48       -14.6767   -5.4449   56.5683 H       1  ZINC000045927156    0.0900
     49 H49       -11.7246   -0.8287   59.5860 H       1  ZINC000045927156    0.1300
     50 H50        -9.9915   -0.8626   61.2924 H       1  ZINC000045927156    0.1400
     51 H51        -8.4532   -2.7737   61.4808 H       1  ZINC000045927156    0.1400
     52 H52        -8.6534   -4.6749   59.9378 H       1  ZINC000045927156    0.1300
@<TRIPOS>BOND
     1     1     2    2
     2     2     3   am
     3     2    17   am
     4     3     4    1
     5     3    32    1
     6     4     5    1
     7     4    33    1
     8     4    34    1
     9     5    10   ar
    10     5     6   ar
    11     6     7   ar
    12     6    35    1
    13     7     8   ar
    14     7    36    1
    15     8     9   ar
    16     8    37    1
    17     9    10   ar
    18     9    38    1
    19    10    11    1
    20    11    12    1
    21    11    39    1
    22    11    40    1
    23    12    16    1
    24    12    13    1
    25    13    14    2
    26    13    41    1
    27    14    15    1
    28    15    16    2
    29    15    42    1
    30    17    21    1
    31    17    18    1
    32    18    19    1
    33    18    43    1
    34    18    44    1
    35    19    20    1
    36    19    45    1
    37    19    46    1
    38    20    21    1
    39    20    47    1
    40    20    48    1
    41    21    22    1
    42    21    23    1
    43    23    31    1
    44    23    24    2
    45    24    25    1
    46    25    30   ar
    47    25    26   ar
    48    26    27   ar
    49    26    49    1
    50    27    28   ar
    51    27    50    1
    52    28    29   ar
    53    28    51    1
    54    29    30   ar
    55    29    52    1
    56    30    31    1
@<TRIPOS>SUBSTRUCTURE
     1 ZINC000045927156        1 TEMP              0 ****  ****    0 ROOT


##########                                Name:    ZINC000770814339
##########                DOCK_Rotatable_Bonds:                  13
##########                         Heavy_Atoms:                  28
##########                    Molecular_Weight:             409.423
##########                DOCK_Rotatable_Bonds:                  13
##########                       Formal_Charge:          -0.0100008
##########                     HBond_Acceptors:                  12
##########                        HBond_Donors:                   4
##########                         Heavy_Atoms:                  28
##########                          Grid_Score:          -41.514740
##########                     Grid_vdw_energy:          -36.579487
##########                      Grid_es_energy:           -4.935251
##########           Internal_energy_repulsive:            9.398956

@<TRIPOS>MOLECULE
ZINC000770814339
 47 48 1 0 0
SMALL
USER_CHARGES


@<TRIPOS>ATOM
      1 C1        -12.1966   -3.5529   53.6319 C.3     1  ZINC000770814339   -0.1500
      2 C2        -11.2140   -3.4646   52.4623 C.3     1  ZINC000770814339    0.0600
      3 O3        -10.1549   -2.5269   52.7897 O.3     1  ZINC000770814339   -0.3500
      4 C4        -10.4654   -1.2215   52.7582 C.2     1  ZINC000770814339    0.4700
      5 O5        -11.5758   -0.8723   52.4343 O.2     1  ZINC000770814339   -0.4800
      6 C6         -9.4290   -0.1913   53.1266 C.3     1  ZINC000770814339    0.0700
      7 O7         -9.3973   -0.0341   54.5466 O.3     1  ZINC000770814339   -0.1800
      8 N8         -8.3893    0.8478   55.0060 N.2     1  ZINC000770814339   -0.2800
      9 C9         -8.4235    1.2957   56.2292 C.2     1  ZINC000770814339    0.1800
     10 C10        -9.5165    0.8806   57.1401 C.2     1  ZINC000770814339    0.5900
     11 O11       -10.4611    1.6202   57.3321 O.2     1  ZINC000770814339   -0.5100
     12 N12        -9.4624   -0.3173   57.7554 N.am    1  ZINC000770814339   -0.7000
     13 C13       -10.5436   -0.7283   58.6544 C.3     1  ZINC000770814339    0.1500
     14 C14       -10.1199   -0.5073   60.0837 C.ar    1  ZINC000770814339   -0.0600
     15 C15        -9.2619   -1.4013   60.6964 C.ar    1  ZINC000770814339   -0.1200
     16 C16        -8.8733   -1.1985   62.0074 C.ar    1  ZINC000770814339   -0.0200
     17 C17        -9.3422   -0.1015   62.7055 C.ar    1  ZINC000770814339   -0.6700
     18 S18        -8.8473    0.1566   64.3768 S.o2    1  ZINC000770814339    2.7000
     19 N19        -7.4084    0.9755   64.3410 N.am    1  ZINC000770814339   -1.2500
     20 O20        -9.8002    1.0445   64.9450 O.2     1  ZINC000770814339   -0.9600
     21 O21        -8.5646   -1.1280   64.9145 O.2     1  ZINC000770814339   -0.9600
     22 C22       -10.1991    0.7933   62.0924 C.ar    1  ZINC000770814339   -0.0200
     23 C23       -10.5847    0.5926   60.7802 C.ar    1  ZINC000770814339   -0.1200
     24 C24        -7.3735    2.2168   56.7078 C.2     1  ZINC000770814339    0.0600
     25 C25        -7.4745    3.0948   57.7655 C.2     1  ZINC000770814339   -0.2000
     26 C26        -6.2592    3.7692   57.8734 C.2     1  ZINC000770814339    0.0400
     27 N27        -5.4535    3.3344   56.9376 N.2     1  ZINC000770814339   -0.2600
     28 N28        -6.1187    2.3549   56.1899 N.pl3   1  ZINC000770814339   -0.4400
     29 H29       -12.9917   -4.2568   53.3861 H       1  ZINC000770814339    0.0800
     30 H30       -11.6707   -3.8954   54.5230 H       1  ZINC000770814339    0.0700
     31 H31       -12.6273   -2.5694   53.8197 H       1  ZINC000770814339    0.0700
     32 H32       -10.7834   -4.4481   52.2745 H       1  ZINC000770814339    0.0700
     33 H33       -11.7400   -3.1220   51.5711 H       1  ZINC000770814339    0.0700
     34 H34        -8.4505   -0.5186   52.7753 H       1  ZINC000770814339    0.1100
     35 H35        -9.6821    0.7613   52.6612 H       1  ZINC000770814339    0.1100
     36 H36        -8.7076   -0.9072   57.6031 H       1  ZINC000770814339    0.4100
     37 H37       -11.4352   -0.1375   58.4443 H       1  ZINC000770814339    0.0900
     38 H38       -10.7629   -1.7848   58.4997 H       1  ZINC000770814339    0.0900
     39 H39        -8.8956   -2.2585   60.1510 H       1  ZINC000770814339    0.1400
     40 H40        -8.2035   -1.8975   62.4863 H       1  ZINC000770814339    0.1500
     41 H41        -7.3570    1.8476   63.9195 H       1  ZINC000770814339    0.4200
     42 H42        -6.6169    0.5831   64.7416 H       1  ZINC000770814339    0.4200
     43 H43       -10.5652    1.6506   62.6377 H       1  ZINC000770814339    0.1500
     44 H44       -11.2542    1.2917   60.3011 H       1  ZINC000770814339    0.1400
     45 H45        -8.3394    3.2353   58.3969 H       1  ZINC000770814339    0.1700
     46 H46        -6.0219    4.5253   58.6070 H       1  ZINC000770814339    0.1900
     47 H47        -5.7546    1.8662   55.4353 H       1  ZINC000770814339    0.4500
@<TRIPOS>BOND
     1     1     2    1
     2     1    29    1
     3     1    30    1
     4     1    31    1
     5     2     3    1
     6     2    32    1
     7     2    33    1
     8     3     4    1
     9     4     5    2
    10     4     6    1
    11     6     7    1
    12     6    34    1
    13     6    35    1
    14     7     8    1
    15     8     9    2
    16     9    10    1
    17     9    24    1
    18    10    11    2
    19    10    12   am
    20    12    13    1
    21    12    36    1
    22    13    14    1
    23    13    37    1
    24    13    38    1
    25    14    23   ar
    26    14    15   ar
    27    15    16   ar
    28    15    39    1
    29    16    17   ar
    30    16    40    1
    31    17    18    1
    32    17    22   ar
    33    18    19   am
    34    18    20    2
    35    18    21    2
    36    19    41    1
    37    19    42    1
    38    22    23   ar
    39    22    43    1
    40    23    44    1
    41    24    28    1
    42    24    25    2
    43    25    26    1
    44    25    45    1
    45    26    27    2
    46    26    46    1
    47    27    28    1
    48    28    47    1
@<TRIPOS>SUBSTRUCTURE
     1 ZINC000770814339        1 TEMP              0 ****  ****    0 ROOT


##########                                Name:    ZINC001591898574
##########                DOCK_Rotatable_Bonds:                  10
##########                         Heavy_Atoms:                  26
##########                    Molecular_Weight:             383.434
##########                DOCK_Rotatable_Bonds:                  10
##########                       Formal_Charge:         5.96046e-08
##########                     HBond_Acceptors:                  13
##########                        HBond_Donors:                   3
##########                         Heavy_Atoms:                  26
##########                          Grid_Score:          -41.009460
##########                     Grid_vdw_energy:          -36.766148
##########                      Grid_es_energy:           -4.243313
##########           Internal_energy_repulsive:           13.474704

@<TRIPOS>MOLECULE
ZINC001591898574
 47 48 1 0 0
SMALL
USER_CHARGES


@<TRIPOS>ATOM
      1 C1        -14.8826   -3.8120   57.2502 C.3     1  ZINC001591898574   -0.1100
      2 C2        -13.3922   -3.6426   57.1051 C.ar    1  ZINC001591898574    0.2300
      3 C3        -12.6055   -3.3922   58.2154 C.ar    1  ZINC001591898574   -0.2400
      4 C4        -11.2283   -3.2423   58.0351 C.ar    1  ZINC001591898574    0.3000
      5 C5        -10.3418   -2.9731   59.1943 C.2     1  ZINC001591898574    0.2100
      6 N6         -9.0248   -2.9128   59.1813 N.2     1  ZINC001591898574   -0.2500
      7 N7         -8.6299   -2.6583   60.3813 N.pl3   1  ZINC001591898574   -0.2200
      8 N8         -9.6542   -2.5553   61.1541 N.2     1  ZINC001591898574   -0.0400
      9 N9        -10.7244   -2.7380   60.4576 N.2     1  ZINC001591898574   -0.2500
     10 N10       -10.7235   -3.3450   56.8083 N.ar    1  ZINC001591898574   -0.5500
     11 C11       -11.5123   -3.5856   55.7726 C.ar    1  ZINC001591898574    0.5800
     12 N12       -10.9550   -3.6865   54.5096 N.pl3   1  ZINC001591898574   -0.7000
     13 C13       -11.8102   -3.6050   53.3229 C.3     1  ZINC001591898574    0.1400
     14 C14       -11.6440   -2.2322   52.6680 C.3     1  ZINC001591898574   -0.1500
     15 C15       -10.2092   -2.0807   52.1585 C.3     1  ZINC001591898574    0.1200
     16 N16        -9.6368   -0.8349   52.6747 N.am    1  ZINC001591898574   -0.7300
     17 C17        -8.4370   -0.4101   52.2315 C.2     1  ZINC001591898574    0.4900
     18 O18        -7.8318   -1.0585   51.4041 O.2     1  ZINC001591898574   -0.5300
     19 C19        -7.8473    0.8705   52.7638 C.3     1  ZINC001591898574    0.1000
     20 N20        -8.2721    1.9910   51.9211 N.am    1  ZINC001591898574   -0.9800
     21 C21        -7.4487    2.4042   50.7819 C.3     1  ZINC001591898574    0.1000
     22 S22        -9.6830    2.7907   52.2562 S.o2    1  ZINC001591898574    2.6100
     23 C23        -9.7927    4.0710   50.9758 C.3     1  ZINC001591898574   -0.6600
     24 O24       -10.6944    1.8103   52.0691 O.2     1  ZINC001591898574   -0.9500
     25 O25        -9.4587    3.3780   53.5306 O.2     1  ZINC001591898574   -0.9600
     26 N26       -12.8210   -3.7371   55.9148 N.ar    1  ZINC001591898574   -0.5600
     27 H27       -15.1133   -4.8626   57.4271 H       1  ZINC001591898574    0.0900
     28 H28       -15.2359   -3.2159   58.0916 H       1  ZINC001591898574    0.0900
     29 H29       -15.3767   -3.4803   56.3370 H       1  ZINC001591898574    0.0900
     30 H30       -13.0459   -3.3140   59.1984 H       1  ZINC001591898574    0.1600
     31 H31        -7.7056   -2.5598   60.6587 H       1  ZINC001591898574    0.4800
     32 H32        -9.9982   -3.8112   54.4103 H       1  ZINC001591898574    0.4200
     33 H33       -11.5238   -4.3826   52.6147 H       1  ZINC001591898574    0.0700
     34 H34       -12.8510   -3.7447   53.6148 H       1  ZINC001591898574    0.0700
     35 H35       -12.3378   -2.1420   51.8322 H       1  ZINC001591898574    0.0800
     36 H36       -11.8537   -1.4526   53.4002 H       1  ZINC001591898574    0.0800
     37 H37        -9.6109   -2.9248   52.5011 H       1  ZINC001591898574    0.0700
     38 H38       -10.2114   -2.0554   51.0687 H       1  ZINC001591898574    0.0700
     39 H39       -10.1213   -0.3157   53.3354 H       1  ZINC001591898574    0.4000
     40 H40        -8.1926    1.0326   53.7849 H       1  ZINC001591898574    0.1200
     41 H41        -6.7596    0.8010   52.7548 H       1  ZINC001591898574    0.1300
     42 H42        -7.7578    1.8554   49.8923 H       1  ZINC001591898574    0.0600
     43 H43        -7.5747    3.4733   50.6114 H       1  ZINC001591898574    0.0700
     44 H44        -6.4011    2.1911   50.9946 H       1  ZINC001591898574    0.0700
     45 H45        -9.8152    3.6006   49.9927 H       1  ZINC001591898574    0.1300
     46 H46       -10.7029    4.6530   51.1210 H       1  ZINC001591898574    0.1200
     47 H47        -8.9262    4.7286   51.0442 H       1  ZINC001591898574    0.1300
@<TRIPOS>BOND
     1     1     2    1
     2     1    27    1
     3     1    28    1
     4     1    29    1
     5     2    26   ar
     6     2     3   ar
     7     3     4   ar
     8     3    30    1
     9     4     5    1
    10     4    10   ar
    11     5     9    1
    12     5     6    2
    13     6     7    1
    14     7     8    1
    15     7    31    1
    16     8     9    2
    17    10    11   ar
    18    11    12    1
    19    11    26   ar
    20    12    13    1
    21    12    32    1
    22    13    14    1
    23    13    33    1
    24    13    34    1
    25    14    15    1
    26    14    35    1
    27    14    36    1
    28    15    16    1
    29    15    37    1
    30    15    38    1
    31    16    17   am
    32    16    39    1
    33    17    18    2
    34    17    19    1
    35    19    20    1
    36    19    40    1
    37    19    41    1
    38    20    21    1
    39    20    22   am
    40    21    42    1
    41    21    43    1
    42    21    44    1
    43    22    23    1
    44    22    24    2
    45    22    25    2
    46    23    45    1
    47    23    46    1
    48    23    47    1
@<TRIPOS>SUBSTRUCTURE
     1 ZINC001591898574        1 TEMP              0 ****  ****    0 ROOT


##########                                Name:    ZINC000824084043
##########                DOCK_Rotatable_Bonds:                  11
##########                         Heavy_Atoms:                  27
##########                    Molecular_Weight:             382.547
##########                DOCK_Rotatable_Bonds:                  11
##########                       Formal_Charge:        -6.85453e-07
##########                     HBond_Acceptors:                   7
##########                        HBond_Donors:                   3
##########                         Heavy_Atoms:                  27
##########                          Grid_Score:          -40.808308
##########                     Grid_vdw_energy:          -38.352081
##########                      Grid_es_energy:           -2.456227
##########           Internal_energy_repulsive:           23.091066

@<TRIPOS>MOLECULE
ZINC000824084043
 65 66 1 0 0
SMALL
USER_CHARGES


@<TRIPOS>ATOM
      1 C1        -12.0480    0.5927   52.4045 C.3     1  ZINC000824084043   -0.1400
      2 C2        -12.4592   -0.8576   52.6661 C.3     1  ZINC000824084043   -0.1000
      3 C3        -12.8193   -1.5325   51.3410 C.3     1  ZINC000824084043   -0.1300
      4 C4        -11.2971   -1.6070   53.3209 C.3     1  ZINC000824084043    0.1700
      5 H5        -10.9369   -1.0402   54.1793 H       1  ZINC000824084043    0.0700
      6 C6        -11.7749   -2.9849   53.7836 C.3     1  ZINC000824084043   -0.1400
      7 C7        -12.9944   -2.8228   54.6932 C.3     1  ZINC000824084043    0.1300
      8 N8        -13.0640   -3.9531   55.6228 N.am    1  ZINC000824084043   -0.6200
      9 C9        -13.8752   -5.1266   55.2896 C.3     1  ZINC000824084043    0.0800
     10 C10       -12.3816   -3.9133   56.7843 C.2     1  ZINC000824084043    0.7000
     11 O11       -12.4404   -4.8506   57.5565 O.2     1  ZINC000824084043   -0.5800
     12 N12       -11.6340   -2.8343   57.0900 N.am    1  ZINC000824084043   -0.7500
     13 C13       -10.8908   -2.7917   58.3517 C.3     1  ZINC000824084043    0.1600
     14 C14        -9.7634   -1.7604   58.2473 C.3     1  ZINC000824084043   -0.1600
     15 C15        -9.0418   -1.6638   59.5933 C.3     1  ZINC000824084043   -0.0100
     16 N16        -9.9914   -1.2493   60.6330 N.4     1  ZINC000824084043   -0.3800
     17 H17       -10.4152   -0.3723   60.3697 H       1  ZINC000824084043    0.4200
     18 C18        -9.2790   -1.0842   61.9071 C.3     1  ZINC000824084043    0.0000
     19 C19        -9.4992    0.3351   62.4343 C.3     1  ZINC000824084043   -0.1200
     20 C20       -11.0004    0.5770   62.7289 C.3     1  ZINC000824084043   -0.1400
     21 C21       -10.9641    1.7264   63.7666 C.3     1  ZINC000824084043   -0.1200
     22 C22        -9.7426    1.3998   64.6504 C.3     1  ZINC000824084043   -0.1300
     23 C23        -8.8111    0.5152   63.8033 C.3     1  ZINC000824084043   -0.1100
     24 C24       -11.0361   -2.2686   60.7884 C.3     1  ZINC000824084043    0.0000
     25 C25       -11.8344   -2.3886   59.4885 C.3     1  ZINC000824084043   -0.1600
     26 N26       -10.2109   -1.7672   52.3508 N.am    1  ZINC000824084043   -0.7800
     27 C27        -9.1633   -0.9194   52.3662 C.2     1  ZINC000824084043    0.6600
     28 O28        -8.2558   -1.0540   51.5574 O.co2   1  ZINC000824084043   -0.7200
     29 O29        -9.1202   -0.0154   53.1890 O.co2   1  ZINC000824084043   -0.7300
     30 H30       -12.8759    1.1266   51.9381 H       1  ZINC000824084043    0.0500
     31 H31       -11.7915    1.0735   53.3486 H       1  ZINC000824084043    0.0500
     32 H32       -11.1837    0.6112   51.7408 H       1  ZINC000824084043    0.0500
     33 H33       -13.3236   -0.8762   53.3299 H       1  ZINC000824084043    0.0500
     34 H34       -11.9549   -1.5140   50.6772 H       1  ZINC000824084043    0.0600
     35 H35       -13.1123   -2.5657   51.5273 H       1  ZINC000824084043    0.0700
     36 H36       -13.6472   -0.9986   50.8745 H       1  ZINC000824084043    0.0300
     37 H37       -12.0463   -3.5858   52.9156 H       1  ZINC000824084043    0.0700
     38 H38       -10.9751   -3.4811   54.3333 H       1  ZINC000824084043    0.0600
     39 H39       -12.9066   -1.8940   55.2567 H       1  ZINC000824084043    0.0900
     40 H40       -13.8993   -2.7955   54.0862 H       1  ZINC000824084043    0.0900
     41 H41       -13.2652   -5.8474   54.7451 H       1  ZINC000824084043    0.0600
     42 H42       -14.2463   -5.5841   56.2067 H       1  ZINC000824084043    0.0600
     43 H43       -14.7178   -4.8215   54.6690 H       1  ZINC000824084043    0.0800
     44 H44       -11.5880   -2.0860   56.4744 H       1  ZINC000824084043    0.4000
     45 H45       -10.4688   -3.7749   58.5595 H       1  ZINC000824084043    0.1100
     46 H46        -9.0571   -2.0701   57.4771 H       1  ZINC000824084043    0.1200
     47 H47       -10.1825   -0.7881   57.9883 H       1  ZINC000824084043    0.0900
     48 H48        -8.6231   -2.6365   59.8512 H       1  ZINC000824084043    0.1300
     49 H49        -8.2384   -0.9305   59.5224 H       1  ZINC000824084043    0.1300
     50 H50        -9.6591   -1.8042   62.6318 H       1  ZINC000824084043    0.1300
     51 H51        -8.2133   -1.2530   61.7519 H       1  ZINC000824084043    0.1300
     52 H52        -9.1254    1.0687   61.7200 H       1  ZINC000824084043    0.1000
     53 H53       -11.5260    0.8880   61.8261 H       1  ZINC000824084043    0.0700
     54 H54       -11.4588   -0.3148   63.1563 H       1  ZINC000824084043    0.0800
     55 H55       -10.8288    2.6862   63.2681 H       1  ZINC000824084043    0.0700
     56 H56       -11.8764    1.7306   64.3632 H       1  ZINC000824084043    0.0800
     57 H57        -9.2296    2.3192   64.9327 H       1  ZINC000824084043    0.0700
     58 H58       -10.0607    0.8602   65.5424 H       1  ZINC000824084043    0.0700
     59 H59        -8.6772   -0.4537   64.2842 H       1  ZINC000824084043    0.0700
     60 H60        -7.8461    1.0052   63.6745 H       1  ZINC000824084043    0.0800
     61 H61       -10.5748   -3.2285   61.0209 H       1  ZINC000824084043    0.1300
     62 H62       -11.7049   -1.9820   61.5999 H       1  ZINC000824084043    0.1300
     63 H63       -12.2964   -1.4293   59.2553 H       1  ZINC000824084043    0.0900
     64 H64       -12.6084   -3.1471   59.6054 H       1  ZINC000824084043    0.1200
     65 H65       -10.2459   -2.4833   51.6975 H       1  ZINC000824084043    0.3600
@<TRIPOS>BOND
     1     1     2    1
     2     1    30    1
     3     1    31    1
     4     1    32    1
     5     2     3    1
     6     2     4    1
     7     2    33    1
     8     3    34    1
     9     3    35    1
    10     3    36    1
    11     4     5    1
    12     4     6    1
    13     4    26    1
    14     6     7    1
    15     6    37    1
    16     6    38    1
    17     7     8    1
    18     7    39    1
    19     7    40    1
    20     8     9    1
    21     8    10   am
    22     9    41    1
    23     9    42    1
    24     9    43    1
    25    10    11    2
    26    10    12   am
    27    12    13    1
    28    12    44    1
    29    13    25    1
    30    13    14    1
    31    13    45    1
    32    14    15    1
    33    14    46    1
    34    14    47    1
    35    15    16    1
    36    15    48    1
    37    15    49    1
    38    16    17    1
    39    16    18    1
    40    16    24    1
    41    18    19    1
    42    18    50    1
    43    18    51    1
    44    19    23    1
    45    19    20    1
    46    19    52    1
    47    20    21    1
    48    20    53    1
    49    20    54    1
    50    21    22    1
    51    21    55    1
    52    21    56    1
    53    22    23    1
    54    22    57    1
    55    22    58    1
    56    23    59    1
    57    23    60    1
    58    24    25    1
    59    24    61    1
    60    24    62    1
    61    25    63    1
    62    25    64    1
    63    26    27   am
    64    26    65    1
    65    27    28   ar
    66    27    29   ar
@<TRIPOS>SUBSTRUCTURE
     1 ZINC000824084043        1 TEMP              0 ****  ****    0 ROOT


##########                                Name:    ZINC001109082135
##########                DOCK_Rotatable_Bonds:                   9
##########                         Heavy_Atoms:                  27
##########                    Molecular_Weight:             373.455
##########                DOCK_Rotatable_Bonds:                   9
##########                       Formal_Charge:          -0.0100003
##########                     HBond_Acceptors:                   8
##########                        HBond_Donors:                   3
##########                         Heavy_Atoms:                  27
##########                          Grid_Score:          -40.740757
##########                     Grid_vdw_energy:          -39.102783
##########                      Grid_es_energy:           -1.637975
##########           Internal_energy_repulsive:           21.134014

@<TRIPOS>MOLECULE
ZINC001109082135
 54 57 1 0 0
SMALL
USER_CHARGES


@<TRIPOS>ATOM
      1 C1         -3.0570    2.2672   56.5777 C.3     1  ZINC001109082135   -0.1400
      2 C2         -4.0258    2.8427   57.6126 C.3     1  ZINC001109082135   -0.1400
      3 C3         -5.4230    2.8415   57.0479 C.2     1  ZINC001109082135    0.5100
      4 O4         -5.5941    2.9581   55.8529 O.2     1  ZINC001109082135   -0.5400
      5 N5         -6.4824    2.7109   57.8707 N.am    1  ZINC001109082135   -0.7200
      6 C6         -7.8407    2.7115   57.3219 C.3     1  ZINC001109082135    0.1000
      7 C7         -8.3175    1.2912   57.1596 C.2     1  ZINC001109082135    0.5100
      8 O8         -8.2046    0.7321   56.0892 O.2     1  ZINC001109082135   -0.5300
      9 N9         -8.8696    0.6421   58.2039 N.am    1  ZINC001109082135   -0.7100
     10 C10        -9.3315   -0.7392   58.0465 C.3     1  ZINC001109082135    0.1100
     11 H11        -8.8338   -1.2151   57.2015 H       1  ZINC001109082135    0.0900
     12 C12        -9.0904   -1.5459   59.3459 C.3     1  ZINC001109082135   -0.1600
     13 C13       -10.5251   -1.9699   59.7830 C.3     1  ZINC001109082135    0.0600
     14 H14       -10.5784   -2.8268   60.4547 H       1  ZINC001109082135    0.1300
     15 C15       -11.1913   -0.6619   60.3064 C.3     1  ZINC001109082135   -0.1200
     16 C16       -11.4340    0.1614   59.0178 C.3     1  ZINC001109082135   -0.1100
     17 C17       -10.8790   -0.7832   57.8677 C.3     1  ZINC001109082135    0.0400
     18 H18       -11.2590   -0.5791   56.8667 H       1  ZINC001109082135    0.1200
     19 N19       -11.1953   -2.1408   58.4446 N.3     1  ZINC001109082135   -0.4800
     20 C20       -10.5637   -3.2077   57.6567 C.3     1  ZINC001109082135    0.0800
     21 C21       -11.5549   -3.7490   56.6588 C.2     1  ZINC001109082135    0.2000
     22 C22       -12.3908   -4.7652   57.0104 C.2     1  ZINC001109082135   -0.2900
     23 C23       -13.3065   -5.2479   56.0528 C.2     1  ZINC001109082135    0.5200
     24 O24       -14.0732   -6.1563   56.3265 O.2     1  ZINC001109082135   -0.5400
     25 N25       -13.3171   -4.6826   54.8267 N.am    1  ZINC001109082135   -0.6300
     26 C26       -12.4635   -3.6796   54.5417 C.2     1  ZINC001109082135    0.4300
     27 C27       -12.4880   -3.0595   53.1684 C.3     1  ZINC001109082135   -0.1400
     28 C28       -11.8556   -1.6757   53.0068 C.3     1  ZINC001109082135   -0.1400
     29 C29       -11.1525   -2.9095   52.4372 C.3     1  ZINC001109082135   -0.1400
     30 N30       -11.6187   -3.2292   55.4305 N.2     1  ZINC001109082135   -0.5300
     31 H31        -3.0846    2.8776   55.6752 H       1  ZINC001109082135    0.0600
     32 H32        -2.0465    2.2680   56.9862 H       1  ZINC001109082135    0.0600
     33 H33        -3.3497    1.2458   56.3346 H       1  ZINC001109082135    0.0600
     34 H34        -3.9982    2.2322   58.5152 H       1  ZINC001109082135    0.1000
     35 H35        -3.7331    3.8641   57.8557 H       1  ZINC001109082135    0.1000
     36 H36        -6.3454    2.6165   58.8264 H       1  ZINC001109082135    0.4100
     37 H37        -8.5069    3.2430   58.0017 H       1  ZINC001109082135    0.1000
     38 H38        -7.8403    3.2078   56.3515 H       1  ZINC001109082135    0.1000
     39 H39        -8.9610    1.0897   59.0596 H       1  ZINC001109082135    0.4000
     40 H40        -8.4756   -2.4232   59.1445 H       1  ZINC001109082135    0.0800
     41 H41        -8.6272   -0.9180   60.1071 H       1  ZINC001109082135    0.0800
     42 H42       -12.1357   -0.8845   60.8031 H       1  ZINC001109082135    0.0700
     43 H43       -10.5181   -0.1312   60.9797 H       1  ZINC001109082135    0.0700
     44 H44       -12.4986    0.3470   58.8758 H       1  ZINC001109082135    0.0700
     45 H45       -10.8811    1.1002   59.0523 H       1  ZINC001109082135    0.0700
     46 H46        -9.6990   -2.8060   57.1285 H       1  ZINC001109082135    0.1000
     47 H47       -10.2431   -4.0094   58.3218 H       1  ZINC001109082135    0.0700
     48 H48       -12.3528   -5.1927   58.0015 H       1  ZINC001109082135    0.1600
     49 H49       -13.9381   -4.9983   54.1516 H       1  ZINC001109082135    0.4200
     50 H50       -13.3687   -3.2842   52.5668 H       1  ZINC001109082135    0.1300
     51 H51       -12.3204   -0.9896   52.2987 H       1  ZINC001109082135    0.1100
     52 H52       -11.4219   -1.2139   53.8937 H       1  ZINC001109082135    0.1100
     53 H53       -10.2561   -3.2592   52.9493 H       1  ZINC001109082135    0.1100
     54 H54       -11.1547   -3.0349   51.3544 H       1  ZINC001109082135    0.1100
@<TRIPOS>BOND
     1     1     2    1
     2     1    31    1
     3     1    32    1
     4     1    33    1
     5     2     3    1
     6     2    34    1
     7     2    35    1
     8     3     4    2
     9     3     5   am
    10     5     6    1
    11     5    36    1
    12     6     7    1
    13     6    37    1
    14     6    38    1
    15     7     8    2
    16     7     9   am
    17     9    10    1
    18     9    39    1
    19    10    11    1
    20    10    17    1
    21    10    12    1
    22    12    13    1
    23    12    40    1
    24    12    41    1
    25    13    14    1
    26    13    19    1
    27    13    15    1
    28    15    16    1
    29    15    42    1
    30    15    43    1
    31    16    17    1
    32    16    44    1
    33    16    45    1
    34    17    18    1
    35    17    19    1
    36    19    20    1
    37    20    21    1
    38    20    46    1
    39    20    47    1
    40    21    30    1
    41    21    22    2
    42    22    23    1
    43    22    48    1
    44    23    24    2
    45    23    25   am
    46    25    26    1
    47    25    49    1
    48    26    27    1
    49    26    30    2
    50    27    29    1
    51    27    28    1
    52    27    50    1
    53    28    29    1
    54    28    51    1
    55    28    52    1
    56    29    53    1
    57    29    54    1
@<TRIPOS>SUBSTRUCTURE
     1 ZINC001109082135        1 TEMP              0 ****  ****    0 ROOT


##########                                Name:    ZINC000011620562
##########                DOCK_Rotatable_Bonds:                   9
##########                         Heavy_Atoms:                  29
##########                    Molecular_Weight:             417.448
##########                DOCK_Rotatable_Bonds:                   9
##########                       Formal_Charge:           0.0299999
##########                     HBond_Acceptors:                  12
##########                        HBond_Donors:                   1
##########                         Heavy_Atoms:                  29
##########                          Grid_Score:          -40.637520
##########                     Grid_vdw_energy:          -39.492580
##########                      Grid_es_energy:           -1.144939
##########           Internal_energy_repulsive:           11.939345

@<TRIPOS>MOLECULE
ZINC000011620562
 48 50 1 0 0
SMALL
USER_CHARGES


@<TRIPOS>ATOM
      1 C1         -9.0368   -1.6460   61.5806 C.3     1  ZINC000011620562    0.0400
      2 O2         -9.0830   -2.6975   60.5803 O.3     1  ZINC000011620562   -0.3500
      3 C3        -10.0450   -2.6099   59.6482 C.2     1  ZINC000011620562    0.4600
      4 O4        -10.1963   -3.5045   58.8503 O.2     1  ZINC000011620562   -0.5000
      5 C5        -10.9364   -1.3959   59.5971 C.3     1  ZINC000011620562    0.1300
      6 N6        -12.2687   -1.7876   59.1305 N.am    1  ZINC000011620562   -0.7200
      7 C7        -13.1098   -2.4358   59.9605 C.2     1  ZINC000011620562    0.5400
      8 O8        -12.7643   -2.6935   61.0941 O.2     1  ZINC000011620562   -0.5200
      9 C9        -14.4797   -2.8404   59.4800 C.3     1  ZINC000011620562   -0.1600
     10 S10       -14.6106   -2.5315   57.7014 S.3     1  ZINC000011620562    0.1400
     11 C11       -14.2531   -4.1426   57.0840 C.2     1  ZINC000011620562    0.2100
     12 N12       -14.5222   -5.2855   57.6782 N.2     1  ZINC000011620562   -0.3400
     13 N13       -14.1295   -6.2715   56.9552 N.2     1  ZINC000011620562   -0.0300
     14 N14       -13.5904   -5.8427   55.8657 N.2     1  ZINC000011620562   -0.0800
     15 N15       -13.6544   -4.4388   55.9045 N.pl3   1  ZINC000011620562   -0.2600
     16 C16       -13.1896   -3.5343   54.9305 C.2     1  ZINC000011620562   -0.1300
     17 C17       -13.9369   -2.9509   53.9661 C.2     1  ZINC000011620562    0.2500
     18 C18       -15.4136   -3.1579   53.7486 C.3     1  ZINC000011620562   -0.1100
     19 N19       -13.1232   -2.1403   53.2214 N.pl3   1  ZINC000011620562   -0.3700
     20 C20       -13.5383   -1.3252   52.0770 C.3     1  ZINC000011620562    0.0900
     21 N21       -11.8253   -2.2238   53.7422 N.am    1  ZINC000011620562   -0.3600
     22 C22       -10.6999   -1.5463   53.2626 C.ar    1  ZINC000011620562    0.1400
     23 C23       -10.5084   -0.2066   53.5754 C.ar    1  ZINC000011620562   -0.1300
     24 C24        -9.3956    0.4595   53.1007 C.ar    1  ZINC000011620562   -0.1000
     25 C25        -8.4726   -0.2059   52.3148 C.ar    1  ZINC000011620562   -0.1100
     26 C26        -8.6605   -1.5396   52.0013 C.ar    1  ZINC000011620562   -0.1000
     27 C27        -9.7682   -2.2130   52.4776 C.ar    1  ZINC000011620562   -0.1000
     28 C28       -11.8560   -3.0699   54.7918 C.2     1  ZINC000011620562    0.5500
     29 O29       -10.9090   -3.3844   55.4897 O.2     1  ZINC000011620562   -0.5000
     30 H30        -9.9773   -1.6268   62.1312 H       1  ZINC000011620562    0.0700
     31 H31        -8.2154   -1.8374   62.2711 H       1  ZINC000011620562    0.1100
     32 H32        -8.8830   -0.6847   61.0904 H       1  ZINC000011620562    0.0700
     33 H33       -11.0139   -0.9598   60.5930 H       1  ZINC000011620562    0.1200
     34 H34       -10.5124   -0.6624   58.9113 H       1  ZINC000011620562    0.1200
     35 H35       -12.5455   -1.5804   58.2242 H       1  ZINC000011620562    0.4200
     36 H36       -14.6352   -3.9011   59.6770 H       1  ZINC000011620562    0.1400
     37 H37       -15.2360   -2.2583   60.0066 H       1  ZINC000011620562    0.1400
     38 H38       -15.7961   -3.8567   54.4924 H       1  ZINC000011620562    0.1000
     39 H39       -15.9324   -2.2041   53.8455 H       1  ZINC000011620562    0.1000
     40 H40       -15.5806   -3.5624   52.7503 H       1  ZINC000011620562    0.1000
     41 H41       -14.5980   -1.4879   51.8805 H       1  ZINC000011620562    0.1100
     42 H42       -13.3675   -0.2720   52.3001 H       1  ZINC000011620562    0.0900
     43 H43       -12.9582   -1.6094   51.1991 H       1  ZINC000011620562    0.0900
     44 H44       -11.2292    0.3137   54.1888 H       1  ZINC000011620562    0.1300
     45 H45        -9.2464    1.5013   53.3431 H       1  ZINC000011620562    0.1300
     46 H46        -7.6032    0.3173   51.9449 H       1  ZINC000011620562    0.1300
     47 H47        -7.9380   -2.0561   51.3868 H       1  ZINC000011620562    0.1400
     48 H48        -9.9141   -3.2547   52.2326 H       1  ZINC000011620562    0.1400
@<TRIPOS>BOND
     1     1     2    1
     2     1    30    1
     3     1    31    1
     4     1    32    1
     5     2     3    1
     6     3     4    2
     7     3     5    1
     8     5     6    1
     9     5    33    1
    10     5    34    1
    11     6     7   am
    12     6    35    1
    13     7     8    2
    14     7     9    1
    15     9    10    1
    16     9    36    1
    17     9    37    1
    18    10    11    1
    19    11    15    1
    20    11    12    2
    21    12    13    1
    22    13    14    2
    23    14    15    1
    24    15    16    1
    25    16    28    1
    26    16    17    2
    27    17    18    1
    28    17    19    1
    29    18    38    1
    30    18    39    1
    31    18    40    1
    32    19    20    1
    33    19    21    1
    34    20    41    1
    35    20    42    1
    36    20    43    1
    37    21    22    1
    38    21    28   am
    39    22    27   ar
    40    22    23   ar
    41    23    24   ar
    42    23    44    1
    43    24    25   ar
    44    24    45    1
    45    25    26   ar
    46    25    46    1
    47    26    27   ar
    48    26    47    1
    49    27    48    1
    50    28    29    2
@<TRIPOS>SUBSTRUCTURE
     1 ZINC000011620562        1 TEMP              0 ****  ****    0 ROOT


##########                                Name:    ZINC000912668252
##########                DOCK_Rotatable_Bonds:                  10
##########                         Heavy_Atoms:                  30
##########                    Molecular_Weight:             411.433
##########                DOCK_Rotatable_Bonds:                  10
##########                       Formal_Charge:           0.0199993
##########                     HBond_Acceptors:                   8
##########                        HBond_Donors:                   2
##########                         Heavy_Atoms:                  30
##########                          Grid_Score:          -40.542042
##########                     Grid_vdw_energy:          -38.981483
##########                      Grid_es_energy:           -1.560560
##########           Internal_energy_repulsive:           12.802657

@<TRIPOS>MOLECULE
ZINC000912668252
 52 54 1 0 0
SMALL
USER_CHARGES


@<TRIPOS>ATOM
      1 C1        -10.4470   -2.3986   52.8620 C.3     1  ZINC000912668252   -0.1700
      2 C2        -11.9020   -2.5521   52.4146 C.3     1  ZINC000912668252    0.1100
      3 N3        -12.6965   -1.4431   52.9484 N.am    1  ZINC000912668252   -0.6100
      4 C4        -12.7533   -0.1691   52.2275 C.3     1  ZINC000912668252    0.1000
      5 C5        -13.9216   -0.1938   51.2397 C.3     1  ZINC000912668252   -0.1800
      6 C6        -13.3753   -1.5949   54.1029 C.2     1  ZINC000912668252    0.5600
      7 O7        -14.0344   -0.6747   54.5459 O.2     1  ZINC000912668252   -0.5300
      8 C8        -13.3179   -2.8808   54.8306 C.ar    1  ZINC000912668252   -0.1100
      9 C9        -14.3060   -3.8454   54.6269 C.ar    1  ZINC000912668252   -0.1100
     10 C10       -14.2499   -5.0450   55.3070 C.ar    1  ZINC000912668252   -0.1000
     11 C11       -13.2173   -5.2960   56.1908 C.ar    1  ZINC000912668252   -0.1200
     12 C12       -12.2285   -4.3420   56.4007 C.ar    1  ZINC000912668252    0.1400
     13 N13       -11.1848   -4.6013   57.2964 N.am    1  ZINC000912668252   -0.6700
     14 C14       -11.0560   -3.8591   58.4140 C.2     1  ZINC000912668252    0.5200
     15 O15       -11.8444   -2.9665   58.6435 O.2     1  ZINC000912668252   -0.4900
     16 C16        -9.9322   -4.1382   59.3785 C.3     1  ZINC000912668252    0.0500
     17 O17       -10.0958   -3.3153   60.5636 O.3     1  ZINC000912668252   -0.3300
     18 C18        -9.4639   -2.1242   60.5738 C.2     1  ZINC000912668252    0.5400
     19 O19        -8.7859   -1.7876   59.6224 O.2     1  ZINC000912668252   -0.4800
     20 C20        -9.5948   -1.2332   61.7343 C.2     1  ZINC000912668252    0.0400
     21 C21       -10.6967   -0.4998   62.0447 C.2     1  ZINC000912668252   -0.0900
     22 C22       -10.4162    0.2186   63.2317 C.ar    1  ZINC000912668252   -0.1000
     23 C23       -11.1571    1.1186   64.0088 C.ar    1  ZINC000912668252   -0.0900
     24 C24       -10.6014    1.6640   65.1318 C.ar    1  ZINC000912668252    0.0700
     25 F25       -11.3176    2.5317   65.8797 F       1  ZINC000912668252   -0.1400
     26 C26        -9.3050    1.3331   65.5115 C.ar    1  ZINC000912668252   -0.1100
     27 C27        -8.5580    0.4512   64.7629 C.ar    1  ZINC000912668252   -0.1000
     28 C28        -9.1027   -0.1171   63.6150 C.ar    1  ZINC000912668252    0.1100
     29 N29        -8.6198   -1.0113   62.6880 N.pl3   1  ZINC000912668252   -0.5600
     30 C30       -12.2730   -3.1363   55.7186 C.ar    1  ZINC000912668252   -0.0700
     31 H31        -9.8557   -3.2238   52.4648 H       1  ZINC000912668252    0.0700
     32 H32       -10.0498   -1.4546   52.4890 H       1  ZINC000912668252    0.0600
     33 H33       -10.3986   -2.4083   53.9508 H       1  ZINC000912668252    0.0600
     34 H34       -11.9502   -2.5425   51.3257 H       1  ZINC000912668252    0.0800
     35 H35       -12.2991   -3.4962   52.7875 H       1  ZINC000912668252    0.0900
     36 H36       -12.8958    0.6447   52.9384 H       1  ZINC000912668252    0.0900
     37 H37       -11.8209   -0.0175   51.6837 H       1  ZINC000912668252    0.0800
     38 H38       -13.6192   -0.7167   50.3324 H       1  ZINC000912668252    0.0600
     39 H39       -14.7686   -0.7100   51.6915 H       1  ZINC000912668252    0.0700
     40 H40       -14.2091    0.8279   50.9914 H       1  ZINC000912668252    0.0700
     41 H41       -15.1146   -3.6528   53.9373 H       1  ZINC000912668252    0.1400
     42 H42       -15.0155   -5.7899   55.1484 H       1  ZINC000912668252    0.1400
     43 H43       -13.1788   -6.2364   56.7205 H       1  ZINC000912668252    0.1300
     44 H44       -10.5542   -5.3151   57.1129 H       1  ZINC000912668252    0.4200
     45 H45        -9.9495   -5.1907   59.6617 H       1  ZINC000912668252    0.1100
     46 H46        -8.9793   -3.9055   58.9033 H       1  ZINC000912668252    0.1100
     47 H47       -11.6202   -0.4701   61.4856 H       1  ZINC000912668252    0.1700
     48 H48       -12.1644    1.3809   63.7210 H       1  ZINC000912668252    0.1400
     49 H49        -8.8799    1.7723   66.4019 H       1  ZINC000912668252    0.1400
     50 H50        -7.5520    0.2011   65.0655 H       1  ZINC000912668252    0.1400
     51 H51        -7.7392   -1.4178   62.7007 H       1  ZINC000912668252    0.4300
     52 H52       -11.5055   -2.3937   55.8803 H       1  ZINC000912668252    0.1400
@<TRIPOS>BOND
     1     1     2    1
     2     1    31    1
     3     1    32    1
     4     1    33    1
     5     2     3    1
     6     2    34    1
     7     2    35    1
     8     3     4    1
     9     3     6   am
    10     4     5    1
    11     4    36    1
    12     4    37    1
    13     5    38    1
    14     5    39    1
    15     5    40    1
    16     6     7    2
    17     6     8    1
    18     8    30   ar
    19     8     9   ar
    20     9    10   ar
    21     9    41    1
    22    10    11   ar
    23    10    42    1
    24    11    12   ar
    25    11    43    1
    26    12    13    1
    27    12    30   ar
    28    13    14   am
    29    13    44    1
    30    14    15    2
    31    14    16    1
    32    16    17    1
    33    16    45    1
    34    16    46    1
    35    17    18    1
    36    18    19    2
    37    18    20    1
    38    20    29    1
    39    20    21    2
    40    21    22    1
    41    21    47    1
    42    22    28   ar
    43    22    23   ar
    44    23    24   ar
    45    23    48    1
    46    24    25    1
    47    24    26   ar
    48    26    27   ar
    49    26    49    1
    50    27    28   ar
    51    27    50    1
    52    28    29    1
    53    29    51    1
    54    30    52    1
@<TRIPOS>SUBSTRUCTURE
     1 ZINC000912668252        1 TEMP              0 ****  ****    0 ROOT


##########                                Name:    ZINC001573443776
##########                DOCK_Rotatable_Bonds:                   8
##########                         Heavy_Atoms:                  28
##########                    Molecular_Weight:             386.457
##########                DOCK_Rotatable_Bonds:                   8
##########                       Formal_Charge:          0.00999954
##########                     HBond_Acceptors:                  10
##########                        HBond_Donors:                   3
##########                         Heavy_Atoms:                  28
##########                          Grid_Score:          -40.409710
##########                     Grid_vdw_energy:          -38.378880
##########                      Grid_es_energy:           -2.030830
##########           Internal_energy_repulsive:           40.094585

@<TRIPOS>MOLECULE
ZINC001573443776
 54 56 1 0 0
SMALL
USER_CHARGES


@<TRIPOS>ATOM
      1 C1         -8.7586   -0.6065   63.0954 C.3     1  ZINC001573443776   -0.1800
      2 C2         -9.9578   -0.4556   62.1953 C.2     1  ZINC001573443776    0.5100
      3 O3        -10.6841    0.5090   62.3094 O.2     1  ZINC001573443776   -0.5400
      4 N4        -10.2231   -1.3925   61.2636 N.am    1  ZINC001573443776   -0.6100
      5 C5         -9.3525   -2.5665   61.1135 C.3     1  ZINC001573443776    0.1100
      6 C6         -8.9065   -2.6659   59.6512 C.3     1  ZINC001573443776   -0.1300
      7 C7        -10.1400   -2.6781   58.7455 C.3     1  ZINC001573443776   -0.1000
      8 C8        -10.9197   -1.3736   58.9250 C.3     1  ZINC001573443776   -0.1200
      9 H9        -10.2754   -0.5283   58.6832 H       1  ZINC001573443776    0.1000
     10 C10       -12.1161   -1.3724   58.0085 C.2     1  ZINC001573443776    0.5200
     11 O11       -12.5223   -0.3289   57.5429 O.2     1  ZINC001573443776   -0.5300
     12 N12       -12.7345   -2.5312   57.7064 N.am    1  ZINC001573443776   -0.7300
     13 C13       -13.8964   -2.5302   56.8141 C.3     1  ZINC001573443776    0.1100
     14 C14       -13.9230   -3.8317   56.0100 C.3     1  ZINC001573443776    0.1400
     15 H15       -12.9714   -3.9594   55.4940 H       1  ZINC001573443776    0.0900
     16 C16       -14.1522   -5.0116   56.9568 C.3     1  ZINC001573443776   -0.1700
     17 N17       -15.0079   -3.7764   55.0271 N.pl3   1  ZINC001573443776   -0.7200
     18 C18       -14.7895   -3.1975   53.7833 C.ar    1  ZINC001573443776    0.4300
     19 C19       -15.8357   -3.1197   52.8685 C.ar    1  ZINC001573443776   -0.2500
     20 C20       -15.6104   -2.5423   51.6342 C.ar    1  ZINC001573443776    0.0100
     21 C21       -14.3300   -2.0551   51.3512 C.ar    1  ZINC001573443776   -0.1400
     22 C22       -14.0377   -1.4255   50.0393 C.2     1  ZINC001573443776    0.2400
     23 N23       -13.6041   -0.1975   49.8344 N.2     1  ZINC001573443776   -0.3000
     24 N24       -13.4729   -0.0326   48.5631 N.pl3   1  ZINC001573443776   -0.2300
     25 N25       -13.8093   -1.1168   47.9560 N.2     1  ZINC001573443776   -0.0500
     26 N26       -14.1575   -1.9968   48.8324 N.2     1  ZINC001573443776   -0.2700
     27 C27       -13.3341   -2.1684   52.3167 C.ar    1  ZINC001573443776    0.2300
     28 C28       -11.9503   -1.6477   52.0251 C.3     1  ZINC001573443776   -0.1200
     29 N29       -13.5898   -2.7217   53.4851 N.ar    1  ZINC001573443776   -0.5400
     30 C30       -11.3918   -1.2625   60.3827 C.3     1  ZINC001573443776    0.1200
     31 H31        -9.0619   -1.0824   64.0280 H       1  ZINC001573443776    0.0900
     32 H32        -8.0080   -1.2225   62.6005 H       1  ZINC001573443776    0.0800
     33 H33        -8.3387    0.3764   63.3090 H       1  ZINC001573443776    0.1000
     34 H34        -8.4785   -2.4578   61.7555 H       1  ZINC001573443776    0.1000
     35 H35        -9.9018   -3.4666   61.3898 H       1  ZINC001573443776    0.0700
     36 H36        -8.2810   -1.8084   59.4026 H       1  ZINC001573443776    0.0700
     37 H37        -8.3391   -3.5851   59.5056 H       1  ZINC001573443776    0.0800
     38 H38        -9.8263   -2.7735   57.7060 H       1  ZINC001573443776    0.0800
     39 H39       -10.7772   -3.5216   59.0112 H       1  ZINC001573443776    0.0700
     40 H40       -12.4104   -3.3657   58.0797 H       1  ZINC001573443776    0.4000
     41 H41       -14.8086   -2.4497   57.4052 H       1  ZINC001573443776    0.0900
     42 H42       -13.8298   -1.6828   56.1316 H       1  ZINC001573443776    0.0800
     43 H43       -13.3450   -5.0527   57.6881 H       1  ZINC001573443776    0.0700
     44 H44       -15.1038   -4.8838   57.4727 H       1  ZINC001573443776    0.0700
     45 H45       -14.1710   -5.9387   56.3840 H       1  ZINC001573443776    0.0700
     46 H46       -15.8788   -4.1440   55.2448 H       1  ZINC001573443776    0.4100
     47 H47       -16.8119   -3.5067   53.1206 H       1  ZINC001573443776    0.1400
     48 H48       -16.4037   -2.4690   50.9051 H       1  ZINC001573443776    0.1400
     49 H49       -13.1685    0.7810   48.1313 H       1  ZINC001573443776    0.4800
     50 H50       -11.8813   -0.6051   52.3355 H       1  ZINC001573443776    0.0800
     51 H51       -11.2167   -2.2392   52.5729 H       1  ZINC001573443776    0.0800
     52 H52       -11.7518   -1.7223   50.9559 H       1  ZINC001573443776    0.1100
     53 H53       -12.1075   -2.0563   60.5966 H       1  ZINC001573443776    0.0800
     54 H54       -11.8615   -0.2917   60.5418 H       1  ZINC001573443776    0.0900
@<TRIPOS>BOND
     1     1     2    1
     2     1    31    1
     3     1    32    1
     4     1    33    1
     5     2     3    2
     6     2     4   am
     7     4    30    1
     8     4     5    1
     9     5     6    1
    10     5    34    1
    11     5    35    1
    12     6     7    1
    13     6    36    1
    14     6    37    1
    15     7     8    1
    16     7    38    1
    17     7    39    1
    18     8     9    1
    19     8    10    1
    20     8    30    1
    21    10    11    2
    22    10    12   am
    23    12    13    1
    24    12    40    1
    25    13    14    1
    26    13    41    1
    27    13    42    1
    28    14    15    1
    29    14    16    1
    30    14    17    1
    31    16    43    1
    32    16    44    1
    33    16    45    1
    34    17    18    1
    35    17    46    1
    36    18    29   ar
    37    18    19   ar
    38    19    20   ar
    39    19    47    1
    40    20    21   ar
    41    20    48    1
    42    21    22    1
    43    21    27   ar
    44    22    26    1
    45    22    23    2
    46    23    24    1
    47    24    25    1
    48    24    49    1
    49    25    26    2
    50    27    28    1
    51    27    29   ar
    52    28    50    1
    53    28    51    1
    54    28    52    1
    55    30    53    1
    56    30    54    1
@<TRIPOS>SUBSTRUCTURE
     1 ZINC001573443776        1 TEMP              0 ****  ****    0 ROOT


##########                                Name:    ZINC000767361237
##########                DOCK_Rotatable_Bonds:                  10
##########                         Heavy_Atoms:                  30
##########                    Molecular_Weight:             409.439
##########                DOCK_Rotatable_Bonds:                  10
##########                       Formal_Charge:          -0.0300005
##########                     HBond_Acceptors:                   7
##########                        HBond_Donors:                   1
##########                         Heavy_Atoms:                  30
##########                          Grid_Score:          -40.377178
##########                     Grid_vdw_energy:          -39.649342
##########                      Grid_es_energy:           -0.727836
##########           Internal_energy_repulsive:           22.814856

@<TRIPOS>MOLECULE
ZINC000767361237
 53 55 1 0 0
SMALL
USER_CHARGES


@<TRIPOS>ATOM
      1 C1         -5.7015    0.9964   50.5878 C.3     1  ZINC000767361237   -0.1200
      2 C2         -7.0362    0.5779   51.1486 C.ar    1  ZINC000767361237   -0.0900
      3 C3         -7.9094    1.5308   51.6389 C.ar    1  ZINC000767361237   -0.1200
      4 C4         -9.1337    1.1470   52.1533 C.ar    1  ZINC000767361237   -0.1100
      5 C5         -9.4850   -0.1897   52.1771 C.ar    1  ZINC000767361237   -0.0800
      6 C6        -10.8195   -0.6082   52.7383 C.3     1  ZINC000767361237   -0.0800
      7 H7        -11.6099   -0.3314   52.0407 H       1  ZINC000767361237    0.0900
      8 C8        -11.0523    0.0941   54.0775 C.3     1  ZINC000767361237   -0.1500
      9 C9        -10.8320   -2.1237   52.9481 C.3     1  ZINC000767361237    0.1300
     10 H10        -9.8667   -2.4442   53.3401 H       1  ZINC000767361237    0.1400
     11 O11       -11.0797   -2.7752   51.7007 O.3     1  ZINC000767361237   -0.5200
     12 C12       -11.9177   -2.4861   53.9285 C.2     1  ZINC000767361237    0.4300
     13 O13       -13.0721   -2.2411   53.6692 O.2     1  ZINC000767361237   -0.5000
     14 O14       -11.6022   -3.0810   55.0896 O.3     1  ZINC000767361237   -0.3300
     15 C15       -12.6196   -3.0858   56.1256 C.3     1  ZINC000767361237    0.0100
     16 C16       -12.0365   -3.6407   57.3997 C.2     1  ZINC000767361237    0.3700
     17 O17       -11.7678   -4.8154   57.4794 O.2     1  ZINC000767361237   -0.4200
     18 C18       -11.7888   -2.7296   58.5742 C.3     1  ZINC000767361237   -0.1800
     19 C19       -10.4322   -2.0416   58.4087 C.3     1  ZINC000767361237    0.1200
     20 N20       -10.0372   -1.4289   59.6795 N.am    1  ZINC000767361237   -0.5800
     21 C21       -10.3727   -0.1832   60.0607 C.2     1  ZINC000767361237    0.5700
     22 O22       -11.0408    0.5996   59.4159 O.2     1  ZINC000767361237   -0.4600
     23 C23        -9.7929    0.0730   61.3960 C.ar    1  ZINC000767361237   -0.1400
     24 C24        -9.8047    1.1516   62.2652 C.ar    1  ZINC000767361237   -0.0400
     25 C25        -9.1401    1.0636   63.4789 C.ar    1  ZINC000767361237   -0.0900
     26 C26        -8.4668   -0.0920   63.8266 C.ar    1  ZINC000767361237   -0.0900
     27 C27        -8.4464   -1.1795   62.9668 C.ar    1  ZINC000767361237   -0.0400
     28 C28        -9.1060   -1.1060   61.7508 C.ar    1  ZINC000767361237   -0.1400
     29 C29        -9.2960   -2.0401   60.6212 C.2     1  ZINC000767361237    0.5700
     30 O30        -8.8551   -3.1698   60.5536 O.2     1  ZINC000767361237   -0.4600
     31 C31        -8.6125   -1.1425   51.6854 C.ar    1  ZINC000767361237   -0.1100
     32 C32        -7.3897   -0.7583   51.1675 C.ar    1  ZINC000767361237   -0.1200
     33 H33        -5.8020    1.1958   49.5209 H       1  ZINC000767361237    0.0700
     34 H34        -5.3608    1.8988   51.0954 H       1  ZINC000767361237    0.0700
     35 H35        -4.9762    0.1973   50.7413 H       1  ZINC000767361237    0.0700
     36 H36        -7.6348    2.5752   51.6203 H       1  ZINC000767361237    0.1200
     37 H37        -9.8155    1.8915   52.5371 H       1  ZINC000767361237    0.1200
     38 H38       -12.0176   -0.2086   54.4835 H       1  ZINC000767361237    0.0800
     39 H39       -10.2618   -0.1827   54.7752 H       1  ZINC000767361237    0.0700
     40 H40       -11.0434    1.1738   53.9280 H       1  ZINC000767361237    0.0600
     41 H41       -10.3436   -2.7215   51.0759 H       1  ZINC000767361237    0.3900
     42 H42       -12.9670   -2.0672   56.2984 H       1  ZINC000767361237    0.1100
     43 H43       -13.4575   -3.7068   55.8089 H       1  ZINC000767361237    0.1100
     44 H44       -12.5749   -1.9762   58.6217 H       1  ZINC000767361237    0.1100
     45 H45       -11.7898   -3.3143   59.4941 H       1  ZINC000767361237    0.1100
     46 H46        -9.6851   -2.7778   58.1125 H       1  ZINC000767361237    0.1100
     47 H47       -10.5069   -1.2709   57.6416 H       1  ZINC000767361237    0.1100
     48 H48       -10.3290    2.0573   61.9984 H       1  ZINC000767361237    0.1400
     49 H49        -9.1485    1.9040   64.1570 H       1  ZINC000767361237    0.1400
     50 H50        -7.9526   -0.1483   64.7747 H       1  ZINC000767361237    0.1400
     51 H51        -7.9189   -2.0802   63.2440 H       1  ZINC000767361237    0.1400
     52 H52        -8.8871   -2.1869   51.7036 H       1  ZINC000767361237    0.1200
     53 H53        -6.7080   -1.5027   50.7834 H       1  ZINC000767361237    0.1200
@<TRIPOS>BOND
     1     1     2    1
     2     1    33    1
     3     1    34    1
     4     1    35    1
     5     2    32   ar
     6     2     3   ar
     7     3     4   ar
     8     3    36    1
     9     4     5   ar
    10     4    37    1
    11     5     6    1
    12     5    31   ar
    13     6     7    1
    14     6     8    1
    15     6     9    1
    16     8    38    1
    17     8    39    1
    18     8    40    1
    19     9    10    1
    20     9    11    1
    21     9    12    1
    22    11    41    1
    23    12    13    2
    24    12    14    1
    25    14    15    1
    26    15    16    1
    27    15    42    1
    28    15    43    1
    29    16    17    2
    30    16    18    1
    31    18    19    1
    32    18    44    1
    33    18    45    1
    34    19    20    1
    35    19    46    1
    36    19    47    1
    37    20    29   am
    38    20    21   am
    39    21    22    2
    40    21    23    1
    41    23    28   ar
    42    23    24   ar
    43    24    25   ar
    44    24    48    1
    45    25    26   ar
    46    25    49    1
    47    26    27   ar
    48    26    50    1
    49    27    28   ar
    50    27    51    1
    51    28    29    1
    52    29    30    2
    53    31    32   ar
    54    31    52    1
    55    32    53    1
@<TRIPOS>SUBSTRUCTURE
     1 ZINC000767361237        1 TEMP              0 ****  ****    0 ROOT


##########                                Name:    ZINC000442010511
##########                DOCK_Rotatable_Bonds:                  11
##########                         Heavy_Atoms:                  31
##########                    Molecular_Weight:             422.481
##########                DOCK_Rotatable_Bonds:                  11
##########                       Formal_Charge:          -0.0200005
##########                     HBond_Acceptors:                   7
##########                        HBond_Donors:                   2
##########                         Heavy_Atoms:                  31
##########                          Grid_Score:          -40.300865
##########                     Grid_vdw_energy:          -39.878498
##########                      Grid_es_energy:           -0.422367
##########           Internal_energy_repulsive:            9.128248

@<TRIPOS>MOLECULE
ZINC000442010511
 57 59 1 0 0
SMALL
USER_CHARGES


@<TRIPOS>ATOM
      1 C1         -9.8891   -0.5080   60.3086 C.3     1  ZINC000442010511   -0.1500
      2 C2         -9.6086   -1.9508   60.7336 C.3     1  ZINC000442010511   -0.0500
      3 C3        -10.0320   -2.8899   59.6336 C.2     1  ZINC000442010511    0.0000
      4 C4         -9.4128   -4.0351   59.2955 C.2     1  ZINC000442010511   -0.2100
      5 C5        -10.1420   -4.5928   58.2201 C.2     1  ZINC000442010511   -0.1900
      6 C6        -11.1631   -3.7550   57.9657 C.2     1  ZINC000442010511   -0.0300
      7 C7        -12.2103   -3.9407   56.8980 C.3     1  ZINC000442010511    0.2400
      8 H8        -11.8953   -4.7279   56.2131 H       1  ZINC000442010511    0.1400
      9 C9        -13.5384   -4.3323   57.5489 C.3     1  ZINC000442010511    0.0500
     10 O10       -14.5787   -4.2924   56.5700 O.3     1  ZINC000442010511   -0.3800
     11 C11       -14.4091   -5.2281   55.5033 C.3     1  ZINC000442010511    0.0300
     12 N12       -12.3801   -2.6882   56.1573 N.am    1  ZINC000442010511   -0.6900
     13 C13       -11.7494   -2.5108   54.9795 C.2     1  ZINC000442010511    0.5200
     14 O14       -11.0397   -3.3883   54.5332 O.2     1  ZINC000442010511   -0.5100
     15 C15       -11.9239   -1.2348   54.2237 C.2     1  ZINC000442010511    0.5100
     16 O16       -12.6810   -0.3819   54.6395 O.2     1  ZINC000442010511   -0.5000
     17 N17       -11.2409   -1.0302   53.0800 N.am    1  ZINC000442010511   -0.6300
     18 C18       -11.4043    0.1648   52.3721 C.ar    1  ZINC000442010511    0.1200
     19 C19       -12.5568    0.3823   51.6307 C.ar    1  ZINC000442010511   -0.1000
     20 C20       -12.7158    1.5641   50.9320 C.ar    1  ZINC000442010511   -0.1300
     21 C21       -11.7289    2.5319   50.9694 C.ar    1  ZINC000442010511   -0.0900
     22 C22       -10.5773    2.3228   51.7055 C.ar    1  ZINC000442010511   -0.1700
     23 C23       -10.4122    1.1436   52.4140 C.ar    1  ZINC000442010511    0.1000
     24 O24        -9.2806    0.9365   53.1381 O.3     1  ZINC000442010511   -0.2600
     25 C25        -8.0869    1.0216   52.4947 C.ar    1  ZINC000442010511    0.0800
     26 C26        -7.6939    0.0159   51.6231 C.ar    1  ZINC000442010511   -0.1300
     27 C27        -6.4800    0.1050   50.9699 C.ar    1  ZINC000442010511   -0.1100
     28 C28        -5.6565    1.1949   51.1844 C.ar    1  ZINC000442010511   -0.0800
     29 C29        -4.3325    1.2892   50.4708 C.3     1  ZINC000442010511   -0.1200
     30 C30        -6.0459    2.1986   52.0520 C.ar    1  ZINC000442010511   -0.1100
     31 C31        -7.2612    2.1170   52.7037 C.ar    1  ZINC000442010511   -0.1100
     32 O32       -11.0947   -2.7282   58.8287 O.3     1  ZINC000442010511   -0.1600
     33 H33        -9.3290   -0.2811   59.4015 H       1  ZINC000442010511    0.0600
     34 H34       -10.9552   -0.3864   60.1173 H       1  ZINC000442010511    0.0600
     35 H35        -9.5828    0.1712   61.1041 H       1  ZINC000442010511    0.0700
     36 H36        -8.5424   -2.0724   60.9249 H       1  ZINC000442010511    0.0900
     37 H37       -10.1686   -2.1778   61.6408 H       1  ZINC000442010511    0.0800
     38 H38        -8.5281   -4.4490   59.7563 H       1  ZINC000442010511    0.1500
     39 H39        -9.9213   -5.5145   57.7022 H       1  ZINC000442010511    0.1500
     40 H40       -13.4605   -5.3405   57.9555 H       1  ZINC000442010511    0.0700
     41 H41       -13.7691   -3.6331   58.3528 H       1  ZINC000442010511    0.0700
     42 H42       -15.2392   -5.1351   54.8030 H       1  ZINC000442010511    0.0900
     43 H43       -13.4722   -5.0230   54.9856 H       1  ZINC000442010511    0.0400
     44 H44       -14.3868   -6.2400   55.9078 H       1  ZINC000442010511    0.0400
     45 H45       -12.9464   -1.9863   56.5147 H       1  ZINC000442010511    0.4200
     46 H46       -10.6360   -1.7118   52.7479 H       1  ZINC000442010511    0.4300
     47 H47       -13.3293   -0.3718   51.5993 H       1  ZINC000442010511    0.1600
     48 H48       -13.6132    1.7321   50.3550 H       1  ZINC000442010511    0.1300
     49 H49       -11.8579    3.4537   50.4218 H       1  ZINC000442010511    0.1300
     50 H50        -9.8083    3.0805   51.7318 H       1  ZINC000442010511    0.1300
     51 H51        -8.3364   -0.8359   51.4557 H       1  ZINC000442010511    0.1300
     52 H52        -6.1737   -0.6774   50.2913 H       1  ZINC000442010511    0.1300
     53 H53        -4.4675    1.8081   49.5217 H       1  ZINC000442010511    0.0700
     54 H54        -3.6249    1.8414   51.0892 H       1  ZINC000442010511    0.0700
     55 H55        -3.9476    0.2865   50.2852 H       1  ZINC000442010511    0.0700
     56 H56        -5.4008    3.0488   52.2178 H       1  ZINC000442010511    0.1300
     57 H57        -7.5649    2.9013   53.3812 H       1  ZINC000442010511    0.1300
@<TRIPOS>BOND
     1     1     2    1
     2     1    33    1
     3     1    34    1
     4     1    35    1
     5     2     3    1
     6     2    36    1
     7     2    37    1
     8     3    32    1
     9     3     4    2
    10     4     5    1
    11     4    38    1
    12     5     6    2
    13     5    39    1
    14     6     7    1
    15     6    32    1
    16     7     8    1
    17     7     9    1
    18     7    12    1
    19     9    10    1
    20     9    40    1
    21     9    41    1
    22    10    11    1
    23    11    42    1
    24    11    43    1
    25    11    44    1
    26    12    13   am
    27    12    45    1
    28    13    14    2
    29    13    15    1
    30    15    16    2
    31    15    17   am
    32    17    18    1
    33    17    46    1
    34    18    23   ar
    35    18    19   ar
    36    19    20   ar
    37    19    47    1
    38    20    21   ar
    39    20    48    1
    40    21    22   ar
    41    21    49    1
    42    22    23   ar
    43    22    50    1
    44    23    24    1
    45    24    25    1
    46    25    31   ar
    47    25    26   ar
    48    26    27   ar
    49    26    51    1
    50    27    28   ar
    51    27    52    1
    52    28    29    1
    53    28    30   ar
    54    29    53    1
    55    29    54    1
    56    29    55    1
    57    30    31   ar
    58    30    56    1
    59    31    57    1
@<TRIPOS>SUBSTRUCTURE
     1 ZINC000442010511        1 TEMP              0 ****  ****    0 ROOT


##########                                Name:    ZINC000918875053
##########                DOCK_Rotatable_Bonds:                   6
##########                         Heavy_Atoms:                  26
##########                    Molecular_Weight:             359.357
##########                DOCK_Rotatable_Bonds:                   6
##########                       Formal_Charge:           0.0200003
##########                     HBond_Acceptors:                   8
##########                        HBond_Donors:                   0
##########                         Heavy_Atoms:                  26
##########                          Grid_Score:          -40.275993
##########                     Grid_vdw_energy:          -39.366219
##########                      Grid_es_energy:           -0.909774
##########           Internal_energy_repulsive:            9.022860

@<TRIPOS>MOLECULE
ZINC000918875053
 44 47 1 0 0
SMALL
USER_CHARGES


@<TRIPOS>ATOM
      1 C1        -11.7645   -1.4304   51.7388 C.3     1  ZINC000918875053   -0.1700
      2 C2        -10.6749   -1.7624   52.7604 C.3     1  ZINC000918875053    0.1900
      3 H3        -10.9279   -1.3129   53.7205 H       1  ZINC000918875053    0.1400
      4 O4        -10.5760   -3.2032   52.9115 O.3     1  ZINC000918875053   -0.3400
      5 C5        -11.5764   -3.8177   53.5622 C.2     1  ZINC000918875053    0.4800
      6 O6        -12.0454   -4.8403   53.1217 O.2     1  ZINC000918875053   -0.4900
      7 C7        -12.1146   -3.2320   54.8422 C.3     1  ZINC000918875053   -0.0900
      8 H8        -12.5690   -2.2577   54.6622 H       1  ZINC000918875053    0.1400
      9 C9        -13.1207   -4.1964   55.5120 C.3     1  ZINC000918875053   -0.1400
     10 C10       -12.8566   -4.0380   56.9931 C.2     1  ZINC000918875053    0.5300
     11 O11       -13.6062   -4.4004   57.8751 O.2     1  ZINC000918875053   -0.5000
     12 N12       -11.6702   -3.4375   57.1895 N.am    1  ZINC000918875053   -0.5800
     13 C13       -11.1354   -3.1371   58.4486 C.ar    1  ZINC000918875053    0.1000
     14 C14       -11.5885   -2.0289   59.1503 C.ar    1  ZINC000918875053   -0.0800
     15 C15       -11.0594   -1.7352   60.3925 C.ar    1  ZINC000918875053   -0.1200
     16 C16       -10.0790   -2.5432   60.9375 C.ar    1  ZINC000918875053   -0.0800
     17 C17        -9.6241   -3.6489   60.2421 C.ar    1  ZINC000918875053   -0.1500
     18 C18       -10.1530   -3.9521   59.0012 C.ar    1  ZINC000918875053    0.1100
     19 F19        -9.7091   -5.0322   58.3220 F       1  ZINC000918875053   -0.1300
     20 C20       -11.0071   -3.1358   55.9148 C.3     1  ZINC000918875053    0.1200
     21 C21        -9.3545   -1.2158   52.2820 C.2     1  ZINC000918875053    0.1800
     22 N22        -8.9051    0.0038   52.4559 N.2     1  ZINC000918875053   -0.4600
     23 C23        -7.6973    0.0323   51.8648 C.2     1  ZINC000918875053    0.2100
     24 C24        -6.7690    1.2170   51.7896 C.3     1  ZINC000918875053   -0.0900
     25 C25        -5.7052    1.2123   50.6899 C.3     1  ZINC000918875053   -0.1600
     26 C26        -6.9099    2.1496   50.5850 C.3     1  ZINC000918875053   -0.1500
     27 N27        -7.4779   -1.1493   51.3708 N.2     1  ZINC000918875053   -0.3700
     28 O28        -8.4153   -1.8829   51.6047 O.3     1  ZINC000918875053    0.1000
     29 H29       -12.7195   -1.8258   52.0847 H       1  ZINC000918875053    0.0900
     30 H30       -11.8386   -0.3489   51.6253 H       1  ZINC000918875053    0.0900
     31 H31       -11.5114   -1.8800   50.7786 H       1  ZINC000918875053    0.0800
     32 H32       -14.1439   -3.9062   55.2737 H       1  ZINC000918875053    0.1300
     33 H33       -12.9315   -5.2232   55.1985 H       1  ZINC000918875053    0.1100
     34 H34       -12.3539   -1.3962   58.7255 H       1  ZINC000918875053    0.1400
     35 H35       -11.4122   -0.8726   60.9385 H       1  ZINC000918875053    0.1400
     36 H36        -9.6672   -2.3104   61.9083 H       1  ZINC000918875053    0.1400
     37 H37        -8.8581   -4.2781   60.6707 H       1  ZINC000918875053    0.1400
     38 H38       -10.2242   -3.8673   55.7144 H       1  ZINC000918875053    0.1000
     39 H39       -10.5879   -2.1299   55.9364 H       1  ZINC000918875053    0.1000
     40 H40        -6.5025    1.6669   52.7460 H       1  ZINC000918875053    0.1400
     41 H41        -4.7386    1.6590   50.9227 H       1  ZINC000918875053    0.1100
     42 H42        -5.6769    0.3523   50.0208 H       1  ZINC000918875053    0.1000
     43 H43        -7.6742    1.9064   49.8469 H       1  ZINC000918875053    0.1000
     44 H44        -6.7357    3.2131   50.7488 H       1  ZINC000918875053    0.1100
@<TRIPOS>BOND
     1     1     2    1
     2     1    29    1
     3     1    30    1
     4     1    31    1
     5     2     3    1
     6     2     4    1
     7     2    21    1
     8     4     5    1
     9     5     6    2
    10     5     7    1
    11     7     8    1
    12     7    20    1
    13     7     9    1
    14     9    10    1
    15     9    32    1
    16     9    33    1
    17    10    11    2
    18    10    12   am
    19    12    13    1
    20    12    20    1
    21    13    18   ar
    22    13    14   ar
    23    14    15   ar
    24    14    34    1
    25    15    16   ar
    26    15    35    1
    27    16    17   ar
    28    16    36    1
    29    17    18   ar
    30    17    37    1
    31    18    19    1
    32    20    38    1
    33    20    39    1
    34    21    28    1
    35    21    22    2
    36    22    23    1
    37    23    24    1
    38    23    27    2
    39    24    26    1
    40    24    25    1
    41    24    40    1
    42    25    26    1
    43    25    41    1
    44    25    42    1
    45    26    43    1
    46    26    44    1
    47    27    28    1
@<TRIPOS>SUBSTRUCTURE
     1 ZINC000918875053        1 TEMP              0 ****  ****    0 ROOT


##########                                Name:    ZINC000467185792
##########                DOCK_Rotatable_Bonds:                   9
##########                         Heavy_Atoms:                  29
##########                    Molecular_Weight:             412.513
##########                DOCK_Rotatable_Bonds:                   9
##########                       Formal_Charge:                0.04
##########                     HBond_Acceptors:                   8
##########                        HBond_Donors:                   2
##########                         Heavy_Atoms:                  29
##########                          Grid_Score:          -39.982162
##########                     Grid_vdw_energy:          -38.402596
##########                      Grid_es_energy:           -1.579567
##########           Internal_energy_repulsive:           22.644215

@<TRIPOS>MOLECULE
ZINC000467185792
 53 55 1 0 0
SMALL
USER_CHARGES


@<TRIPOS>ATOM
      1 C1        -16.1694   -2.1832   47.8114 C.3     1  ZINC000467185792   -0.1500
      2 C2        -15.5323   -1.3629   48.9349 C.3     1  ZINC000467185792   -0.1200
      3 C3        -14.0537   -1.7349   49.0624 C.3     1  ZINC000467185792    0.0600
      4 O4        -13.4583   -0.9679   50.1108 O.3     1  ZINC000467185792   -0.3100
      5 C5        -13.3194   -1.5763   51.3182 C.ar    1  ZINC000467185792    0.1400
      6 C6        -12.1361   -1.4390   52.0308 C.ar    1  ZINC000467185792   -0.2100
      7 C7        -11.9921   -2.0548   53.2566 C.ar    1  ZINC000467185792   -0.0400
      8 C8        -13.0364   -2.8157   53.7796 C.ar    1  ZINC000467185792   -0.0600
      9 C9        -12.8851   -3.4789   55.0978 C.2     1  ZINC000467185792    0.1400
     10 C10       -13.2314   -4.7626   55.3006 C.2     1  ZINC000467185792   -0.3000
     11 S11       -12.8981   -5.1639   56.9837 S.3     1  ZINC000467185792    0.2000
     12 C12       -12.3110   -3.5264   57.2585 C.2     1  ZINC000467185792    0.2800
     13 N13       -11.8294   -3.0386   58.4656 N.am    1  ZINC000467185792   -0.6100
     14 C14       -10.5805   -2.5371   58.5397 C.2     1  ZINC000467185792    0.5900
     15 O15        -9.8756   -2.5120   57.5490 O.2     1  ZINC000467185792   -0.4900
     16 C16       -10.0693   -2.0193   59.8210 C.2     1  ZINC000467185792   -0.2400
     17 C17       -10.4602   -0.7727   60.3057 C.2     1  ZINC000467185792    0.0800
     18 C18       -11.4231    0.0927   59.5343 C.3     1  ZINC000467185792   -0.1200
     19 C19       -10.6583    0.8850   58.4720 C.3     1  ZINC000467185792   -0.1400
     20 C20        -9.9320   -0.3482   61.5310 C.2     1  ZINC000467185792    0.0600
     21 C21       -10.3294    0.9934   62.0909 C.3     1  ZINC000467185792   -0.0600
     22 C22        -9.7052    1.1730   63.4762 C.3     1  ZINC000467185792   -0.1500
     23 N23        -9.0988   -1.1042   62.1929 N.2     1  ZINC000467185792   -0.1800
     24 N24        -8.7185   -2.2560   61.7759 N.am    1  ZINC000467185792   -0.4300
     25 C25        -9.1615   -2.7754   60.6150 C.2     1  ZINC000467185792    0.5000
     26 O26        -8.7823   -3.8730   60.2442 O.2     1  ZINC000467185792   -0.5300
     27 N27       -12.3940   -2.8488   56.1556 N.2     1  ZINC000467185792   -0.5000
     28 C28       -14.2234   -2.9516   53.0615 C.ar    1  ZINC000467185792   -0.0600
     29 C29       -14.3631   -2.3290   51.8387 C.ar    1  ZINC000467185792   -0.1500
     30 H30       -16.0803   -3.2450   48.0414 H       1  ZINC000467185792    0.0600
     31 H31       -17.2227   -1.9183   47.7206 H       1  ZINC000467185792    0.0700
     32 H32       -15.6590   -1.9710   46.8721 H       1  ZINC000467185792    0.0600
     33 H33       -15.6213   -0.3012   48.7048 H       1  ZINC000467185792    0.0700
     34 H34       -16.0428   -1.5753   49.8742 H       1  ZINC000467185792    0.0700
     35 H35       -13.9646   -2.7965   49.2933 H       1  ZINC000467185792    0.0600
     36 H36       -13.5434   -1.5234   48.1228 H       1  ZINC000467185792    0.0600
     37 H37       -11.3272   -0.8497   51.6249 H       1  ZINC000467185792    0.1300
     38 H38       -11.0710   -1.9479   53.8104 H       1  ZINC000467185792    0.1300
     39 H39       -13.6430   -5.4320   54.5597 H       1  ZINC000467185792    0.1800
     40 H40       -12.3916   -3.0585   59.2558 H       1  ZINC000467185792    0.4400
     41 H41       -12.1698   -0.5369   59.0503 H       1  ZINC000467185792    0.0900
     42 H42       -11.9177    0.7837   60.2169 H       1  ZINC000467185792    0.1300
     43 H43        -9.9115    1.5146   58.9560 H       1  ZINC000467185792    0.0600
     44 H44       -10.1637    0.1939   57.7894 H       1  ZINC000467185792    0.0600
     45 H45       -11.3548    1.5108   57.9141 H       1  ZINC000467185792    0.0700
     46 H46        -9.9757    1.7829   61.4278 H       1  ZINC000467185792    0.1000
     47 H47       -11.4151    1.0461   62.1719 H       1  ZINC000467185792    0.1000
     48 H48        -9.9926    2.1434   63.8811 H       1  ZINC000467185792    0.0600
     49 H49       -10.0588    0.3834   64.1392 H       1  ZINC000467185792    0.0600
     50 H50        -8.6195    1.1203   63.3951 H       1  ZINC000467185792    0.0600
     51 H51        -8.0967   -2.7699   62.3147 H       1  ZINC000467185792    0.4500
     52 H52       -15.0342   -3.5407   53.4640 H       1  ZINC000467185792    0.1300
     53 H53       -15.2826   -2.4336   51.2821 H       1  ZINC000467185792    0.1400
@<TRIPOS>BOND
     1     1     2    1
     2     1    30    1
     3     1    31    1
     4     1    32    1
     5     2     3    1
     6     2    33    1
     7     2    34    1
     8     3     4    1
     9     3    35    1
    10     3    36    1
    11     4     5    1
    12     5    29   ar
    13     5     6   ar
    14     6     7   ar
    15     6    37    1
    16     7     8   ar
    17     7    38    1
    18     8     9    1
    19     8    28   ar
    20     9    27    1
    21     9    10    2
    22    10    11    1
    23    10    39    1
    24    11    12    1
    25    12    13    1
    26    12    27    2
    27    13    14   am
    28    13    40    1
    29    14    15    2
    30    14    16    1
    31    16    25    1
    32    16    17    2
    33    17    18    1
    34    17    20    1
    35    18    19    1
    36    18    41    1
    37    18    42    1
    38    19    43    1
    39    19    44    1
    40    19    45    1
    41    20    21    1
    42    20    23    2
    43    21    22    1
    44    21    46    1
    45    21    47    1
    46    22    48    1
    47    22    49    1
    48    22    50    1
    49    23    24    1
    50    24    25   am
    51    24    51    1
    52    25    26    2
    53    28    29   ar
    54    28    52    1
    55    29    53    1
@<TRIPOS>SUBSTRUCTURE
     1 ZINC000467185792        1 TEMP              0 ****  ****    0 ROOT


##########                                Name:    ZINC000046390957
##########                DOCK_Rotatable_Bonds:                   9
##########                         Heavy_Atoms:                  29
##########                    Molecular_Weight:             408.521
##########                DOCK_Rotatable_Bonds:                   9
##########                       Formal_Charge:           0.0100005
##########                     HBond_Acceptors:                   6
##########                        HBond_Donors:                   1
##########                         Heavy_Atoms:                  29
##########                          Grid_Score:          -39.641949
##########                     Grid_vdw_energy:          -38.924103
##########                      Grid_es_energy:           -0.717844
##########           Internal_energy_repulsive:           14.563469

@<TRIPOS>MOLECULE
ZINC000046390957
 53 55 1 0 0
SMALL
USER_CHARGES


@<TRIPOS>ATOM
      1 C1        -12.7041    0.8837   60.8392 C.3     1  ZINC000046390957   -0.1100
      2 C2        -11.4600    0.1811   61.3184 C.ar    1  ZINC000046390957   -0.0600
      3 C3        -10.6318    0.7929   62.2389 C.ar    1  ZINC000046390957   -0.1200
      4 C4         -9.4897    0.1492   62.6787 C.ar    1  ZINC000046390957   -0.1100
      5 C5         -9.1733   -1.1086   62.1993 C.ar    1  ZINC000046390957   -0.1200
      6 C6         -9.9976   -1.7260   61.2790 C.ar    1  ZINC000046390957   -0.0800
      7 C7         -9.6523   -3.0970   60.7574 C.3     1  ZINC000046390957   -0.1100
      8 C8        -11.1480   -1.0844   60.8392 C.ar    1  ZINC000046390957    0.1300
      9 N9        -11.9856   -1.7074   59.9073 N.am    1  ZINC000046390957   -0.6800
     10 C10       -13.0739   -2.3834   60.3255 C.2     1  ZINC000046390957    0.5200
     11 O11       -13.3274   -2.4519   61.5097 O.2     1  ZINC000046390957   -0.4900
     12 C12       -13.9759   -3.0543   59.3219 C.3     1  ZINC000046390957    0.0700
     13 H13       -14.4717   -3.9045   59.7903 H       1  ZINC000046390957    0.1100
     14 C14       -15.0277   -2.0560   58.8341 C.3     1  ZINC000046390957   -0.1700
     15 O15       -13.1865   -3.5156   58.1939 O.3     1  ZINC000046390957   -0.3300
     16 C16       -13.6185   -4.6151   57.5567 C.2     1  ZINC000046390957    0.4700
     17 O17       -14.6620   -5.1307   57.8813 O.2     1  ZINC000046390957   -0.4800
     18 C18       -12.8023   -5.2065   56.4364 C.3     1  ZINC000046390957   -0.0300
     19 C19       -13.0108   -4.3980   55.1819 C.2     1  ZINC000046390957    0.0800
     20 C20       -14.2092   -3.9391   54.8086 C.2     1  ZINC000046390957   -0.2500
     21 S21       -14.0046   -3.0537   53.2991 S.3     1  ZINC000046390957    0.1300
     22 C22       -12.3280   -3.3886   53.3200 C.2     1  ZINC000046390957    0.0600
     23 C23       -11.3446   -2.9354   52.2719 C.3     1  ZINC000046390957    0.0000
     24 C24       -10.6722   -1.6666   52.7294 C.ar    1  ZINC000046390957   -0.0900
     25 C25       -11.3602   -0.7668   53.5219 C.ar    1  ZINC000046390957   -0.0900
     26 C26       -10.7434    0.3970   53.9414 C.ar    1  ZINC000046390957   -0.1200
     27 C27        -9.4387    0.6609   53.5688 C.ar    1  ZINC000046390957   -0.1200
     28 C28        -8.7504   -0.2393   52.7770 C.ar    1  ZINC000046390957   -0.1200
     29 C29        -9.3658   -1.4052   52.3610 C.ar    1  ZINC000046390957   -0.1100
     30 N30       -12.0258   -4.0808   54.3662 N.2     1  ZINC000046390957   -0.4500
     31 H31       -13.5113    0.7210   61.5534 H       1  ZINC000046390957    0.0800
     32 H32       -12.5070    1.9521   60.7509 H       1  ZINC000046390957    0.0700
     33 H33       -12.9941    0.4861   59.8665 H       1  ZINC000046390957    0.0600
     34 H34       -10.8762    1.7753   62.6153 H       1  ZINC000046390957    0.1300
     35 H35        -8.8433    0.6300   63.3980 H       1  ZINC000046390957    0.1300
     36 H36        -8.2804   -1.6087   62.5445 H       1  ZINC000046390957    0.1300
     37 H37       -10.1049   -3.8541   61.3978 H       1  ZINC000046390957    0.0700
     38 H38       -10.0325   -3.2057   59.7416 H       1  ZINC000046390957    0.0600
     39 H39        -8.5695   -3.2229   60.7554 H       1  ZINC000046390957    0.0700
     40 H40       -11.7829   -1.6526   58.9604 H       1  ZINC000046390957    0.4100
     41 H41       -15.6204   -1.7097   59.6809 H       1  ZINC000046390957    0.0800
     42 H42       -14.5321   -1.2057   58.3656 H       1  ZINC000046390957    0.0800
     43 H43       -15.6803   -2.5413   58.1082 H       1  ZINC000046390957    0.0800
     44 H44       -11.7468   -5.1902   56.7081 H       1  ZINC000046390957    0.1200
     45 H45       -13.1167   -6.2355   56.2620 H       1  ZINC000046390957    0.1300
     46 H46       -15.1388   -4.0852   55.3385 H       1  ZINC000046390957    0.1800
     47 H47       -10.5932   -3.7101   52.1193 H       1  ZINC000046390957    0.1000
     48 H48       -11.8710   -2.7504   51.3356 H       1  ZINC000046390957    0.1000
     49 H49       -12.3795   -0.9731   53.8131 H       1  ZINC000046390957    0.1200
     50 H50       -11.2811    1.1003   54.5601 H       1  ZINC000046390957    0.1200
     51 H51        -8.9571    1.5706   53.8960 H       1  ZINC000046390957    0.1200
     52 H52        -7.7312   -0.0330   52.4856 H       1  ZINC000046390957    0.1200
     53 H53        -8.8281   -2.1084   51.7424 H       1  ZINC000046390957    0.1200
@<TRIPOS>BOND
     1     1     2    1
     2     1    31    1
     3     1    32    1
     4     1    33    1
     5     2     8   ar
     6     2     3   ar
     7     3     4   ar
     8     3    34    1
     9     4     5   ar
    10     4    35    1
    11     5     6   ar
    12     5    36    1
    13     6     7    1
    14     6     8   ar
    15     7    37    1
    16     7    38    1
    17     7    39    1
    18     8     9    1
    19     9    10   am
    20     9    40    1
    21    10    11    2
    22    10    12    1
    23    12    13    1
    24    12    14    1
    25    12    15    1
    26    14    41    1
    27    14    42    1
    28    14    43    1
    29    15    16    1
    30    16    17    2
    31    16    18    1
    32    18    19    1
    33    18    44    1
    34    18    45    1
    35    19    30    1
    36    19    20    2
    37    20    21    1
    38    20    46    1
    39    21    22    1
    40    22    23    1
    41    22    30    2
    42    23    24    1
    43    23    47    1
    44    23    48    1
    45    24    29   ar
    46    24    25   ar
    47    25    26   ar
    48    25    49    1
    49    26    27   ar
    50    26    50    1
    51    27    28   ar
    52    27    51    1
    53    28    29   ar
    54    28    52    1
    55    29    53    1
@<TRIPOS>SUBSTRUCTURE
     1 ZINC000046390957        1 TEMP              0 ****  ****    0 ROOT


##########                                Name:    ZINC000770850676
##########                DOCK_Rotatable_Bonds:                  13
##########                         Heavy_Atoms:                  30
##########                    Molecular_Weight:             412.486
##########                DOCK_Rotatable_Bonds:                  13
##########                       Formal_Charge:          -0.0299994
##########                     HBond_Acceptors:                   7
##########                        HBond_Donors:                   3
##########                         Heavy_Atoms:                  30
##########                          Grid_Score:          -39.569397
##########                     Grid_vdw_energy:          -38.008015
##########                      Grid_es_energy:           -1.561383
##########           Internal_energy_repulsive:           13.228215

@<TRIPOS>MOLECULE
ZINC000770850676
 58 60 1 0 0
SMALL
USER_CHARGES


@<TRIPOS>ATOM
      1 O1        -13.0828   -5.3116   55.5082 O.2     1  ZINC000770850676   -0.5300
      2 C2        -13.1292   -4.2471   56.0875 C.2     1  ZINC000770850676    0.5100
      3 N3        -13.0440   -3.0965   55.3907 N.am    1  ZINC000770850676   -0.7000
      4 C4        -12.8892   -3.1319   53.9343 C.3     1  ZINC000770850676    0.1600
      5 H5        -13.5029   -3.9334   53.5231 H       1  ZINC000770850676    0.1000
      6 C6        -11.4212   -3.3823   53.5834 C.3     1  ZINC000770850676    0.0600
      7 O7        -11.3304   -4.4730   52.6647 O.3     1  ZINC000770850676   -0.5700
      8 C8        -13.3342   -1.7935   53.3414 C.3     1  ZINC000770850676   -0.1500
      9 C9        -13.6835   -1.9812   51.8637 C.3     1  ZINC000770850676    0.1500
     10 H10       -12.8842   -2.5324   51.3686 H       1  ZINC000770850676    0.1100
     11 O11       -14.9062   -2.7125   51.7525 O.3     1  ZINC000770850676   -0.5400
     12 C12       -13.8435   -0.6328   51.2101 C.ar    1  ZINC000770850676   -0.1200
     13 C13       -13.4528   -0.4506   49.8967 C.ar    1  ZINC000770850676   -0.1100
     14 C14       -13.5995    0.7862   49.2971 C.ar    1  ZINC000770850676   -0.1200
     15 C15       -14.1376    1.8408   50.0107 C.ar    1  ZINC000770850676   -0.1200
     16 C16       -14.5292    1.6584   51.3239 C.ar    1  ZINC000770850676   -0.1200
     17 C17       -14.3863    0.4205   51.9221 C.ar    1  ZINC000770850676   -0.1100
     18 C18       -13.2884   -4.2107   57.5856 C.3     1  ZINC000770850676    0.1400
     19 H19       -12.9485   -5.1520   58.0173 H       1  ZINC000770850676    0.1000
     20 C20       -14.7685   -3.9702   57.9503 C.3     1  ZINC000770850676   -0.1200
     21 C21       -14.6749   -3.0252   59.1774 C.3     1  ZINC000770850676   -0.1300
     22 C22       -13.4420   -2.1616   58.8115 C.3     1  ZINC000770850676    0.1000
     23 N23       -12.5110   -3.0947   58.1440 N.am    1  ZINC000770850676   -0.5900
     24 C24       -11.1741   -2.9452   58.0607 C.2     1  ZINC000770850676    0.6700
     25 O25       -10.5043   -3.7788   57.4839 O.2     1  ZINC000770850676   -0.5600
     26 O26       -10.5810   -1.8719   58.6166 O.3     1  ZINC000770850676   -0.3600
     27 C27        -9.4406   -2.1225   59.4799 C.3     1  ZINC000770850676    0.1300
     28 C28        -9.4660   -1.1585   60.6380 C.ar    1  ZINC000770850676   -0.1000
     29 C29        -9.0143   -1.5598   61.8813 C.ar    1  ZINC000770850676   -0.0900
     30 C30        -9.0375   -0.6756   62.9436 C.ar    1  ZINC000770850676   -0.1200
     31 C31        -9.5121    0.6101   62.7625 C.ar    1  ZINC000770850676   -0.1100
     32 C32        -9.9630    1.0116   61.5190 C.ar    1  ZINC000770850676   -0.1200
     33 C33        -9.9357    0.1288   60.4556 C.ar    1  ZINC000770850676   -0.0900
     34 H34       -13.0851   -2.2450   55.8535 H       1  ZINC000770850676    0.4000
     35 H35       -10.9988   -2.4869   53.1274 H       1  ZINC000770850676    0.0500
     36 H36       -10.8669   -3.6242   54.4904 H       1  ZINC000770850676    0.0500
     37 H37       -10.4241   -4.7443   52.4645 H       1  ZINC000770850676    0.3800
     38 H38       -14.2108   -1.4315   53.8789 H       1  ZINC000770850676    0.0800
     39 H39       -12.5259   -1.0682   53.4345 H       1  ZINC000770850676    0.0900
     40 H40       -14.8755   -3.5930   52.1510 H       1  ZINC000770850676    0.3700
     41 H41       -13.0325   -1.2746   49.3391 H       1  ZINC000770850676    0.1200
     42 H42       -13.2936    0.9287   48.2712 H       1  ZINC000770850676    0.1200
     43 H43       -14.2516    2.8073   49.5426 H       1  ZINC000770850676    0.1200
     44 H44       -14.9491    2.4824   51.8816 H       1  ZINC000770850676    0.1200
     45 H45       -14.6923    0.2779   52.9481 H       1  ZINC000770850676    0.1200
     46 H46       -15.2941   -3.4840   57.1284 H       1  ZINC000770850676    0.0800
     47 H47       -15.2561   -4.9067   58.2211 H       1  ZINC000770850676    0.1000
     48 H48       -15.5704   -2.4100   59.2660 H       1  ZINC000770850676    0.0900
     49 H49       -14.4986   -3.5899   60.0928 H       1  ZINC000770850676    0.0800
     50 H50       -13.7289   -1.3592   58.1319 H       1  ZINC000770850676    0.0700
     51 H51       -12.9851   -1.7518   59.7123 H       1  ZINC000770850676    0.0900
     52 H52        -9.4877   -3.1443   59.8565 H       1  ZINC000770850676    0.0800
     53 H53        -8.5193   -1.9860   58.9136 H       1  ZINC000770850676    0.0800
     54 H54        -8.6435   -2.5643   62.0227 H       1  ZINC000770850676    0.1200
     55 H55        -8.6852   -0.9893   63.9151 H       1  ZINC000770850676    0.1300
     56 H56        -9.5309    1.3007   63.5927 H       1  ZINC000770850676    0.1300
     57 H57       -10.3341    2.0160   61.3776 H       1  ZINC000770850676    0.1300
     58 H58       -10.2880    0.4425   59.4842 H       1  ZINC000770850676    0.1200
@<TRIPOS>BOND
     1     1     2    2
     2     2     3   am
     3     2    18    1
     4     3     4    1
     5     3    34    1
     6     4     5    1
     7     4     6    1
     8     4     8    1
     9     6     7    1
    10     6    35    1
    11     6    36    1
    12     7    37    1
    13     8     9    1
    14     8    38    1
    15     8    39    1
    16     9    10    1
    17     9    11    1
    18     9    12    1
    19    11    40    1
    20    12    17   ar
    21    12    13   ar
    22    13    14   ar
    23    13    41    1
    24    14    15   ar
    25    14    42    1
    26    15    16   ar
    27    15    43    1
    28    16    17   ar
    29    16    44    1
    30    17    45    1
    31    18    19    1
    32    18    23    1
    33    18    20    1
    34    20    21    1
    35    20    46    1
    36    20    47    1
    37    21    22    1
    38    21    48    1
    39    21    49    1
    40    22    23    1
    41    22    50    1
    42    22    51    1
    43    23    24   am
    44    24    25    2
    45    24    26    1
    46    26    27    1
    47    27    28    1
    48    27    52    1
    49    27    53    1
    50    28    33   ar
    51    28    29   ar
    52    29    30   ar
    53    29    54    1
    54    30    31   ar
    55    30    55    1
    56    31    32   ar
    57    31    56    1
    58    32    33   ar
    59    32    57    1
    60    33    58    1
@<TRIPOS>SUBSTRUCTURE
     1 ZINC000770850676        1 TEMP              0 ****  ****    0 ROOT


##########                                Name:    ZINC000484900616
##########                DOCK_Rotatable_Bonds:                  10
##########                         Heavy_Atoms:                  29
##########                    Molecular_Weight:             415.556
##########                DOCK_Rotatable_Bonds:                  10
##########                       Formal_Charge:        -1.49012e-08
##########                     HBond_Acceptors:                   7
##########                        HBond_Donors:                   1
##########                         Heavy_Atoms:                  29
##########                          Grid_Score:          -39.365211
##########                     Grid_vdw_energy:          -37.627663
##########                      Grid_es_energy:           -1.737550
##########           Internal_energy_repulsive:           11.332735

@<TRIPOS>MOLECULE
ZINC000484900616
 58 60 1 0 0
SMALL
USER_CHARGES


@<TRIPOS>ATOM
      1 C1         -1.1099    1.2567   59.6272 C.3     1  ZINC000484900616   -0.1500
      2 C2         -0.9322    2.2263   58.4571 C.3     1  ZINC000484900616    0.0600
      3 O3         -2.1180    3.0546   58.3306 O.3     1  ZINC000484900616   -0.3400
      4 C4         -3.2069    2.4839   57.7778 C.2     1  ZINC000484900616    0.5500
      5 O5         -3.1281    1.3759   57.2844 O.2     1  ZINC000484900616   -0.5000
      6 C6         -4.4909    3.2022   57.7716 C.2     1  ZINC000484900616    0.0200
      7 C7         -4.6987    4.3520   58.4533 C.2     1  ZINC000484900616   -0.2400
      8 S8         -6.3074    4.8664   58.1894 S.3     1  ZINC000484900616    0.2900
      9 C9         -6.6097    3.5186   57.1854 C.2     1  ZINC000484900616    0.0300
     10 C10        -7.9234    3.2337   56.5039 C.3     1  ZINC000484900616    0.1500
     11 H11        -8.7131    3.8524   56.9301 H       1  ZINC000484900616    0.0900
     12 C12        -7.8056    3.4838   54.9798 C.3     1  ZINC000484900616   -0.1200
     13 C13        -8.9393    2.5812   54.4256 C.3     1  ZINC000484900616   -0.1400
     14 C14        -8.9084    1.3633   55.3729 C.3     1  ZINC000484900616    0.0500
     15 N15        -8.2679    1.8014   56.6285 N.3     1  ZINC000484900616   -0.5100
     16 C16        -9.1499    1.5661   57.7794 C.3     1  ZINC000484900616    0.0300
     17 C17        -9.0263    0.1308   58.2220 C.2     1  ZINC000484900616    0.5200
     18 O18        -8.5475   -0.6952   57.4741 O.2     1  ZINC000484900616   -0.5100
     19 N19        -9.4478   -0.2347   59.4488 N.am    1  ZINC000484900616   -0.7300
     20 C20        -9.3261   -1.6297   59.8797 C.3     1  ZINC000484900616    0.1900
     21 H21        -8.3256   -1.9954   59.6487 H       1  ZINC000484900616    0.1000
     22 C22        -9.5667   -1.7203   61.3880 C.3     1  ZINC000484900616   -0.1600
     23 C23       -10.3472   -2.4697   59.1568 C.ar    1  ZINC000484900616   -0.1000
     24 C24        -9.9776   -3.6797   58.5998 C.ar    1  ZINC000484900616   -0.1100
     25 C25       -10.9144   -4.4503   57.9367 C.ar    1  ZINC000484900616   -0.1100
     26 C26       -12.2208   -4.0111   57.8309 C.ar    1  ZINC000484900616   -0.0800
     27 C27       -13.2419   -4.8508   57.1077 C.3     1  ZINC000484900616   -0.0900
     28 C28       -13.4388   -4.3068   55.6913 C.3     1  ZINC000484900616   -0.1500
     29 C29       -12.5907   -2.8017   58.3891 C.ar    1  ZINC000484900616   -0.1100
     30 C30       -11.6548   -2.0329   59.0555 C.ar    1  ZINC000484900616   -0.1000
     31 N31        -5.5591    2.7831   57.0874 N.2     1  ZINC000484900616   -0.4300
     32 H32        -1.2587    1.8213   60.5477 H       1  ZINC000484900616    0.0700
     33 H33        -1.9780    0.6230   59.4453 H       1  ZINC000484900616    0.0700
     34 H34        -0.2197    0.6349   59.7223 H       1  ZINC000484900616    0.0800
     35 H35        -0.0641    2.8599   58.6390 H       1  ZINC000484900616    0.0700
     36 H36        -0.7834    1.6617   57.5367 H       1  ZINC000484900616    0.0700
     37 H37        -3.9682    4.8614   59.0642 H       1  ZINC000484900616    0.1900
     38 H38        -7.9886    4.5314   54.7406 H       1  ZINC000484900616    0.0900
     39 H39        -6.8334    3.1635   54.6055 H       1  ZINC000484900616    0.0800
     40 H40        -9.9011    3.0907   54.4843 H       1  ZINC000484900616    0.0700
     41 H41        -8.7245    2.2779   53.4010 H       1  ZINC000484900616    0.0800
     42 H42        -9.9246    1.0250   55.5753 H       1  ZINC000484900616    0.0600
     43 H43        -8.3298    0.5572   54.9217 H       1  ZINC000484900616    0.0900
     44 H44        -8.8620    2.2250   58.5986 H       1  ZINC000484900616    0.1100
     45 H45       -10.1819    1.7707   57.4941 H       1  ZINC000484900616    0.0700
     46 H46        -9.8320    0.4256   60.0464 H       1  ZINC000484900616    0.4000
     47 H47        -9.4761   -2.7581   61.7086 H       1  ZINC000484900616    0.0700
     48 H48        -8.8280   -1.1128   61.9108 H       1  ZINC000484900616    0.0700
     49 H49       -10.5672   -1.3546   61.6189 H       1  ZINC000484900616    0.0600
     50 H50        -8.9569   -4.0229   58.6824 H       1  ZINC000484900616    0.1200
     51 H51       -10.6254   -5.3953   57.5008 H       1  ZINC000484900616    0.1200
     52 H52       -12.8930   -5.8822   57.0556 H       1  ZINC000484900616    0.0700
     53 H53       -14.1892   -4.8145   57.6458 H       1  ZINC000484900616    0.0700
     54 H54       -13.7878   -3.2755   55.7435 H       1  ZINC000484900616    0.0600
     55 H55       -12.4917   -4.3432   55.1531 H       1  ZINC000484900616    0.0600
     56 H56       -14.1775   -4.9142   55.1683 H       1  ZINC000484900616    0.0600
     57 H57       -13.6115   -2.4587   58.3068 H       1  ZINC000484900616    0.1200
     58 H58       -11.9439   -1.0881   59.4917 H       1  ZINC000484900616    0.1200
@<TRIPOS>BOND
     1     1     2    1
     2     1    32    1
     3     1    33    1
     4     1    34    1
     5     2     3    1
     6     2    35    1
     7     2    36    1
     8     3     4    1
     9     4     5    2
    10     4     6    1
    11     6    31    1
    12     6     7    2
    13     7     8    1
    14     7    37    1
    15     8     9    1
    16     9    10    1
    17     9    31    2
    18    10    11    1
    19    10    15    1
    20    10    12    1
    21    12    13    1
    22    12    38    1
    23    12    39    1
    24    13    14    1
    25    13    40    1
    26    13    41    1
    27    14    15    1
    28    14    42    1
    29    14    43    1
    30    15    16    1
    31    16    17    1
    32    16    44    1
    33    16    45    1
    34    17    18    2
    35    17    19   am
    36    19    20    1
    37    19    46    1
    38    20    21    1
    39    20    22    1
    40    20    23    1
    41    22    47    1
    42    22    48    1
    43    22    49    1
    44    23    30   ar
    45    23    24   ar
    46    24    25   ar
    47    24    50    1
    48    25    26   ar
    49    25    51    1
    50    26    27    1
    51    26    29   ar
    52    27    28    1
    53    27    52    1
    54    27    53    1
    55    28    54    1
    56    28    55    1
    57    28    56    1
    58    29    30   ar
    59    29    57    1
    60    30    58    1
@<TRIPOS>SUBSTRUCTURE
     1 ZINC000484900616        1 TEMP              0 ****  ****    0 ROOT


##########                                Name:    ZINC001461256440
##########                DOCK_Rotatable_Bonds:                  13
##########                         Heavy_Atoms:                  26
##########                    Molecular_Weight:             367.445
##########                DOCK_Rotatable_Bonds:                  13
##########                       Formal_Charge:        -6.37025e-07
##########                     HBond_Acceptors:                   8
##########                        HBond_Donors:                   1
##########                         Heavy_Atoms:                  26
##########                          Grid_Score:          -39.322491
##########                     Grid_vdw_energy:          -38.839600
##########                      Grid_es_energy:           -0.482891
##########           Internal_energy_repulsive:           20.318354

@<TRIPOS>MOLECULE
ZINC001461256440
 55 55 1 0 0
SMALL
USER_CHARGES


@<TRIPOS>ATOM
      1 C1         -2.3951    2.0845   56.9868 C.3     1  ZINC001461256440   -0.1500
      2 C2         -3.5539    2.5544   56.1050 C.3     1  ZINC001461256440    0.0600
      3 O3         -3.2954    2.1802   54.7261 O.3     1  ZINC001461256440   -0.3600
      4 C4         -3.5202    3.1142   53.7888 C.2     1  ZINC001461256440    0.4400
      5 O5         -2.6329    3.8648   53.4588 O.2     1  ZINC001461256440   -0.4800
      6 C6         -4.8796    3.2266   53.1480 C.3     1  ZINC001461256440    0.1400
      7 N7         -4.8842    2.4922   51.8804 N.pl3   1  ZINC001461256440   -0.3800
      8 N8         -3.8103    2.3815   50.9880 N.2     1  ZINC001461256440   -0.2800
      9 C9         -4.1918    1.6500   49.9723 C.2     1  ZINC001461256440    0.1000
     10 C10        -3.3434    1.2812   48.7827 C.3     1  ZINC001461256440   -0.0700
     11 C11        -5.5201    1.2684   50.1799 C.2     1  ZINC001461256440   -0.2700
     12 C12        -5.9245    1.7961   51.3676 C.2     1  ZINC001461256440    0.3100
     13 N13        -7.1852    1.6523   51.9466 N.am    1  ZINC001461256440   -0.6500
     14 C14        -7.7232    0.4254   52.0938 C.2     1  ZINC001461256440    0.5200
     15 O15        -7.1104   -0.5539   51.7240 O.2     1  ZINC001461256440   -0.5000
     16 C16        -9.0861    0.2701   52.7177 C.3     1  ZINC001461256440   -0.1300
     17 C17        -9.6290   -1.1280   52.4158 C.3     1  ZINC001461256440   -0.1100
     18 C18       -10.6625   -1.5138   53.4759 C.3     1  ZINC001461256440   -0.1100
     19 C19       -11.1006   -2.9634   53.2575 C.3     1  ZINC001461256440   -0.1200
     20 C20       -12.4687   -3.1701   53.8546 C.2     1  ZINC001461256440    0.4600
     21 O21       -13.3319   -2.3413   53.6884 O.2     1  ZINC001461256440   -0.5000
     22 O22       -12.7283   -4.2752   54.5710 O.3     1  ZINC001461256440   -0.3500
     23 C23       -13.3124   -4.0856   55.8868 C.3     1  ZINC001461256440    0.1200
     24 C24       -14.8105   -3.8089   55.7446 C.3     1  ZINC001461256440   -0.1800
     25 C25       -13.1044   -5.3492   56.7240 C.3     1  ZINC001461256440   -0.1400
     26 C26       -12.6380   -2.8991   56.5781 C.3     1  ZINC001461256440   -0.1800
     27 H27        -2.5891    2.3655   58.0220 H       1  ZINC001461256440    0.0800
     28 H28        -2.3009    1.0010   56.9160 H       1  ZINC001461256440    0.0700
     29 H29        -1.4698    2.5524   56.6507 H       1  ZINC001461256440    0.0700
     30 H30        -4.4792    2.0865   56.4412 H       1  ZINC001461256440    0.0700
     31 H31        -3.6480    3.6381   56.1759 H       1  ZINC001461256440    0.0700
     32 H32        -5.6316    2.8051   53.8149 H       1  ZINC001461256440    0.1300
     33 H33        -5.1073    4.2760   52.9607 H       1  ZINC001461256440    0.1400
     34 H34        -2.8198    0.3470   48.9854 H       1  ZINC001461256440    0.0800
     35 H35        -3.9801    1.1582   47.9066 H       1  ZINC001461256440    0.0800
     36 H36        -2.6167    2.0718   48.5955 H       1  ZINC001461256440    0.0700
     37 H37        -6.1181    0.6601   49.5175 H       1  ZINC001461256440    0.1800
     38 H38        -7.6747    2.4353   52.2434 H       1  ZINC001461256440    0.4100
     39 H39        -9.0093    0.4050   53.7966 H       1  ZINC001461256440    0.1000
     40 H40        -9.7620    1.0193   52.3053 H       1  ZINC001461256440    0.1000
     41 H41       -10.0989   -1.1308   51.4323 H       1  ZINC001461256440    0.0800
     42 H42        -8.8095   -1.8466   52.4289 H       1  ZINC001461256440    0.0800
     43 H43       -10.2210   -1.4131   54.4674 H       1  ZINC001461256440    0.0700
     44 H44       -11.5283   -0.8566   53.3954 H       1  ZINC001461256440    0.0700
     45 H45       -11.1346   -3.1756   52.1890 H       1  ZINC001461256440    0.1100
     46 H46       -10.3889   -3.6343   53.7387 H       1  ZINC001461256440    0.1100
     47 H47       -15.2910   -4.6543   55.2521 H       1  ZINC001461256440    0.0600
     48 H48       -15.2490   -3.6666   56.7324 H       1  ZINC001461256440    0.0700
     49 H49       -14.9587   -2.9087   55.1481 H       1  ZINC001461256440    0.0800
     50 H50       -12.0372   -5.5464   56.8253 H       1  ZINC001461256440    0.0700
     51 H51       -13.5429   -5.2069   57.7116 H       1  ZINC001461256440    0.0800
     52 H52       -13.5850   -6.1946   56.2314 H       1  ZINC001461256440    0.0700
     53 H53       -12.7862   -1.9988   55.9816 H       1  ZINC001461256440    0.0800
     54 H54       -13.0765   -2.7568   57.5658 H       1  ZINC001461256440    0.0700
     55 H55       -11.5708   -3.0961   56.6794 H       1  ZINC001461256440    0.0600
@<TRIPOS>BOND
     1     1     2    1
     2     1    27    1
     3     1    28    1
     4     1    29    1
     5     2     3    1
     6     2    30    1
     7     2    31    1
     8     3     4    1
     9     4     5    2
    10     4     6    1
    11     6     7    1
    12     6    32    1
    13     6    33    1
    14     7    12    1
    15     7     8    1
    16     8     9    2
    17     9    10    1
    18     9    11    1
    19    10    34    1
    20    10    35    1
    21    10    36    1
    22    11    12    2
    23    11    37    1
    24    12    13    1
    25    13    14   am
    26    13    38    1
    27    14    15    2
    28    14    16    1
    29    16    17    1
    30    16    39    1
    31    16    40    1
    32    17    18    1
    33    17    41    1
    34    17    42    1
    35    18    19    1
    36    18    43    1
    37    18    44    1
    38    19    20    1
    39    19    45    1
    40    19    46    1
    41    20    21    2
    42    20    22    1
    43    22    23    1
    44    23    24    1
    45    23    25    1
    46    23    26    1
    47    24    47    1
    48    24    48    1
    49    24    49    1
    50    25    50    1
    51    25    51    1
    52    25    52    1
    53    26    53    1
    54    26    54    1
    55    26    55    1
@<TRIPOS>SUBSTRUCTURE
     1 ZINC001461256440        1 TEMP              0 ****  ****    0 ROOT


##########                                Name:    ZINC000489986384
##########                DOCK_Rotatable_Bonds:                  11
##########                         Heavy_Atoms:                  31
##########                    Molecular_Weight:             415.492
##########                DOCK_Rotatable_Bonds:                  11
##########                       Formal_Charge:          -0.0499997
##########                     HBond_Acceptors:                   6
##########                        HBond_Donors:                   2
##########                         Heavy_Atoms:                  31
##########                          Grid_Score:          -39.273304
##########                     Grid_vdw_energy:          -38.551682
##########                      Grid_es_energy:           -0.721622
##########           Internal_energy_repulsive:           10.980088

@<TRIPOS>MOLECULE
ZINC000489986384
 56 59 1 0 0
SMALL
USER_CHARGES


@<TRIPOS>ATOM
      1 O1         -9.2732    0.5992   57.0645 O.2     1  ZINC000489986384   -0.5000
      2 C2        -10.2557    0.0060   56.6724 C.2     1  ZINC000489986384    0.4900
      3 C3        -10.9078    0.4042   55.3734 C.3     1  ZINC000489986384    0.0900
      4 N4        -10.7141   -0.6586   54.3839 N.pl3   1  ZINC000489986384   -0.4700
      5 C5        -11.4354   -1.8322   54.2918 C.ar    1  ZINC000489986384    0.0700
      6 C6        -12.4864   -2.3801   55.0139 C.ar    1  ZINC000489986384   -0.1100
      7 C7        -12.9949   -3.6101   54.6532 C.ar    1  ZINC000489986384   -0.0900
      8 C8        -12.4627   -4.3022   53.5750 C.ar    1  ZINC000489986384   -0.1300
      9 C9        -11.4277   -3.7785   52.8529 C.ar    1  ZINC000489986384   -0.0600
     10 C10       -10.8970   -2.5335   53.1993 C.ar    1  ZINC000489986384    0.0500
     11 N11        -9.8964   -1.7681   52.6926 N.2     1  ZINC000489986384   -0.4600
     12 C12        -9.7943   -0.6693   53.3817 C.2     1  ZINC000489986384    0.2800
     13 C13        -8.7949    0.4268   53.1156 C.3     1  ZINC000489986384    0.1400
     14 O14        -8.2810    0.2912   51.7891 O.3     1  ZINC000489986384   -0.3000
     15 C15        -7.0783    0.8690   51.5312 C.ar    1  ZINC000489986384    0.1300
     16 C16        -6.1006    0.1624   50.8464 C.ar    1  ZINC000489986384   -0.2100
     17 C17        -4.8789    0.7522   50.5851 C.ar    1  ZINC000489986384   -0.0800
     18 C18        -4.6302    2.0455   51.0060 C.ar    1  ZINC000489986384   -0.1600
     19 C19        -5.6028    2.7517   51.6892 C.ar    1  ZINC000489986384   -0.0800
     20 C20        -6.8283    2.1686   51.9476 C.ar    1  ZINC000489986384   -0.1500
     21 N21       -10.7611   -1.0129   57.3955 N.am    1  ZINC000489986384   -0.7300
     22 C22       -10.1272   -1.4000   58.6582 C.3     1  ZINC000489986384    0.1300
     23 C23       -11.0400   -1.0180   59.8252 C.3     1  ZINC000489986384   -0.0600
     24 H24       -11.5141   -0.0588   59.6168 H       1  ZINC000489986384    0.0900
     25 C25       -12.1161   -2.0908   60.0034 C.3     1  ZINC000489986384    0.0800
     26 O26       -13.4012   -1.5252   59.7379 O.3     1  ZINC000489986384   -0.5700
     27 C27       -10.2235   -0.9109   61.0873 C.ar    1  ZINC000489986384   -0.0700
     28 C28       -10.5403    0.0428   62.0366 C.ar    1  ZINC000489986384   -0.1100
     29 C29        -9.7913    0.1410   63.1943 C.ar    1  ZINC000489986384   -0.1200
     30 C30        -8.7259   -0.7147   63.4030 C.ar    1  ZINC000489986384   -0.1200
     31 C31        -8.4096   -1.6689   62.4541 C.ar    1  ZINC000489986384   -0.1200
     32 C32        -9.1612   -1.7700   61.2983 C.ar    1  ZINC000489986384   -0.1100
     33 H33       -11.9745    0.5601   55.5351 H       1  ZINC000489986384    0.1200
     34 H34       -10.4569    1.3270   55.0084 H       1  ZINC000489986384    0.1200
     35 H35       -12.9038   -1.8458   55.8545 H       1  ZINC000489986384    0.1200
     36 H36       -13.8126   -4.0378   55.2142 H       1  ZINC000489986384    0.1300
     37 H37       -12.8705   -5.2648   53.3039 H       1  ZINC000489986384    0.1300
     38 H38       -11.0205   -4.3261   52.0158 H       1  ZINC000489986384    0.1300
     39 H39        -9.2825    1.3961   53.2191 H       1  ZINC000489986384    0.0800
     40 H40        -7.9762    0.3537   53.8315 H       1  ZINC000489986384    0.1000
     41 H41        -6.2941   -0.8481   50.5180 H       1  ZINC000489986384    0.1300
     42 H42        -4.1174    0.2024   50.0519 H       1  ZINC000489986384    0.1300
     43 H43        -3.6744    2.5046   50.8011 H       1  ZINC000489986384    0.1200
     44 H44        -5.4061    3.7618   52.0172 H       1  ZINC000489986384    0.1300
     45 H45        -7.5878    2.7208   52.4812 H       1  ZINC000489986384    0.1300
     46 H46       -11.5446   -1.4898   57.0798 H       1  ZINC000489986384    0.4000
     47 H47        -9.9597   -2.4770   58.6656 H       1  ZINC000489986384    0.0800
     48 H48        -9.1729   -0.8831   58.7592 H       1  ZINC000489986384    0.0800
     49 H49       -11.9299   -2.9110   59.3100 H       1  ZINC000489986384    0.0500
     50 H50       -12.0888   -2.4665   61.0262 H       1  ZINC000489986384    0.0500
     51 H51       -13.4995   -1.1755   58.8416 H       1  ZINC000489986384    0.3800
     52 H52       -11.3726    0.7112   61.8735 H       1  ZINC000489986384    0.1200
     53 H53       -10.0384    0.8865   63.9356 H       1  ZINC000489986384    0.1200
     54 H54        -8.1403   -0.6375   64.3072 H       1  ZINC000489986384    0.1200
     55 H55        -7.5771   -2.3373   62.6170 H       1  ZINC000489986384    0.1200
     56 H56        -8.9142   -2.5155   60.5570 H       1  ZINC000489986384    0.1200
@<TRIPOS>BOND
     1     1     2    2
     2     2     3    1
     3     2    21   am
     4     3     4    1
     5     3    33    1
     6     3    34    1
     7     4    12    1
     8     4     5    1
     9     5    10   ar
    10     5     6   ar
    11     6     7   ar
    12     6    35    1
    13     7     8   ar
    14     7    36    1
    15     8     9   ar
    16     8    37    1
    17     9    10   ar
    18     9    38    1
    19    10    11    1
    20    11    12    2
    21    12    13    1
    22    13    14    1
    23    13    39    1
    24    13    40    1
    25    14    15    1
    26    15    20   ar
    27    15    16   ar
    28    16    17   ar
    29    16    41    1
    30    17    18   ar
    31    17    42    1
    32    18    19   ar
    33    18    43    1
    34    19    20   ar
    35    19    44    1
    36    20    45    1
    37    21    22    1
    38    21    46    1
    39    22    23    1
    40    22    47    1
    41    22    48    1
    42    23    24    1
    43    23    25    1
    44    23    27    1
    45    25    26    1
    46    25    49    1
    47    25    50    1
    48    26    51    1
    49    27    32   ar
    50    27    28   ar
    51    28    29   ar
    52    28    52    1
    53    29    30   ar
    54    29    53    1
    55    30    31   ar
    56    30    54    1
    57    31    32   ar
    58    31    55    1
    59    32    56    1
@<TRIPOS>SUBSTRUCTURE
     1 ZINC000489986384        1 TEMP              0 ****  ****    0 ROOT


##########                                Name:    ZINC001340305486
##########                DOCK_Rotatable_Bonds:                   8
##########                         Heavy_Atoms:                  27
##########                    Molecular_Weight:             378.431
##########                DOCK_Rotatable_Bonds:                   8
##########                       Formal_Charge:          0.00999955
##########                     HBond_Acceptors:                  10
##########                        HBond_Donors:                   2
##########                         Heavy_Atoms:                  27
##########                          Grid_Score:          -39.250416
##########                     Grid_vdw_energy:          -38.872677
##########                      Grid_es_energy:           -0.377739
##########           Internal_energy_repulsive:           11.427958

@<TRIPOS>MOLECULE
ZINC001340305486
 53 55 1 0 0
SMALL
USER_CHARGES


@<TRIPOS>ATOM
      1 C1         -6.2349    0.2235   50.9452 C.3     1  ZINC001340305486    0.0900
      2 N2         -7.4047   -0.3359   51.6270 N.am    1  ZINC001340305486   -0.7300
      3 C3         -8.2831    0.4826   52.2394 C.2     1  ZINC001340305486    0.5200
      4 O4         -8.1043    1.6821   52.2273 O.2     1  ZINC001340305486   -0.5100
      5 C5         -9.4874   -0.0926   52.9392 C.3     1  ZINC001340305486    0.0600
      6 H6         -9.2373   -0.3056   53.9785 H       1  ZINC001340305486    0.0900
      7 C7         -9.9158   -1.3878   52.2400 C.3     1  ZINC001340305486    0.0900
      8 N8        -11.1951   -1.8269   52.8196 N.am    1  ZINC001340305486   -0.5800
      9 C9        -11.3616   -3.0914   53.2554 C.2     1  ZINC001340305486    0.5100
     10 O10       -10.4487   -3.8867   53.1732 O.2     1  ZINC001340305486   -0.5200
     11 C11       -12.6705   -3.5141   53.8399 C.2     1  ZINC001340305486    0.5200
     12 O12       -13.6136   -3.7455   53.1120 O.2     1  ZINC001340305486   -0.5000
     13 N13       -12.8035   -3.6384   55.1752 N.am    1  ZINC001340305486   -0.6900
     14 C14       -14.0871   -4.0511   55.7482 C.3     1  ZINC001340305486    0.1200
     15 C15       -13.9579   -4.1513   57.2695 C.3     1  ZINC001340305486   -0.0400
     16 C16       -12.5133   -4.3728   57.6373 C.2     1  ZINC001340305486    0.1700
     17 N17       -11.8051   -5.4432   57.3909 N.2     1  ZINC001340305486   -0.2800
     18 N18       -10.6087   -5.2847   57.8395 N.2     1  ZINC001340305486   -0.2900
     19 C19       -10.5008   -4.1073   58.3860 C.2     1  ZINC001340305486    0.1900
     20 C20        -9.2699   -3.5025   59.0099 C.3     1  ZINC001340305486   -0.0400
     21 C21        -9.6463   -2.8783   60.3569 C.3     1  ZINC001340305486   -0.1200
     22 C22       -10.0945   -1.4355   60.1443 C.3     1  ZINC001340305486   -0.1300
     23 C23       -10.8083   -1.2891   58.8012 C.3     1  ZINC001340305486   -0.1400
     24 C24       -12.0593   -2.1719   58.7817 C.3     1  ZINC001340305486    0.1000
     25 N25       -11.7055   -3.4997   58.2787 N.pl3   1  ZINC001340305486   -0.4600
     26 C26       -12.2873   -0.8449   52.9090 C.3     1  ZINC001340305486    0.0200
     27 C27       -11.7433    0.4239   53.5756 C.3     1  ZINC001340305486    0.0500
     28 O28       -10.5628    0.8480   52.8899 O.3     1  ZINC001340305486   -0.3500
     29 H29        -6.5633    0.8969   50.1536 H       1  ZINC001340305486    0.0600
     30 H30        -5.6258    0.7747   51.6617 H       1  ZINC001340305486    0.0600
     31 H31        -5.6451   -0.5850   50.5131 H       1  ZINC001340305486    0.0800
     32 H32        -7.5471   -1.2953   51.6378 H       1  ZINC001340305486    0.4000
     33 H33       -10.0399   -1.2050   51.1725 H       1  ZINC001340305486    0.0900
     34 H34        -9.1590   -2.1566   52.3957 H       1  ZINC001340305486    0.1100
     35 H35       -12.0494   -3.4546   55.7569 H       1  ZINC001340305486    0.4200
     36 H36       -14.8509   -3.3153   55.4961 H       1  ZINC001340305486    0.0900
     37 H37       -14.3705   -5.0224   55.3430 H       1  ZINC001340305486    0.0800
     38 H38       -14.3113   -3.2267   57.7258 H       1  ZINC001340305486    0.0900
     39 H39       -14.5571   -4.9871   57.6308 H       1  ZINC001340305486    0.1100
     40 H40        -8.5206   -4.2789   59.1646 H       1  ZINC001340305486    0.1000
     41 H41        -8.8680   -2.7326   58.3510 H       1  ZINC001340305486    0.0900
     42 H42       -10.4592   -3.4484   60.8066 H       1  ZINC001340305486    0.0600
     43 H43        -8.7811   -2.8957   61.0196 H       1  ZINC001340305486    0.0800
     44 H44       -10.7745   -1.1481   60.9462 H       1  ZINC001340305486    0.0700
     45 H45        -9.2225   -0.7817   60.1613 H       1  ZINC001340305486    0.0800
     46 H46       -11.0970   -0.2481   58.6556 H       1  ZINC001340305486    0.0900
     47 H47       -10.1368   -1.5940   57.9986 H       1  ZINC001340305486    0.0800
     48 H48       -12.4603   -2.2567   59.7917 H       1  ZINC001340305486    0.0900
     49 H49       -12.8092   -1.7257   58.1286 H       1  ZINC001340305486    0.1000
     50 H50       -12.6501   -0.6074   51.9089 H       1  ZINC001340305486    0.0800
     51 H51       -13.1009   -1.2543   53.5077 H       1  ZINC001340305486    0.1700
     52 H52       -12.4953    1.2115   53.5273 H       1  ZINC001340305486    0.1200
     53 H53       -11.5023    0.2129   54.6176 H       1  ZINC001340305486    0.0600
@<TRIPOS>BOND
     1     1     2    1
     2     1    29    1
     3     1    30    1
     4     1    31    1
     5     2     3   am
     6     2    32    1
     7     3     4    2
     8     3     5    1
     9     5     6    1
    10     5    28    1
    11     5     7    1
    12     7     8    1
    13     7    33    1
    14     7    34    1
    15     8     9   am
    16     8    26    1
    17     9    10    2
    18     9    11    1
    19    11    12    2
    20    11    13   am
    21    13    14    1
    22    13    35    1
    23    14    15    1
    24    14    36    1
    25    14    37    1
    26    15    16    1
    27    15    38    1
    28    15    39    1
    29    16    25    1
    30    16    17    2
    31    17    18    1
    32    18    19    2
    33    19    25    1
    34    19    20    1
    35    20    21    1
    36    20    40    1
    37    20    41    1
    38    21    22    1
    39    21    42    1
    40    21    43    1
    41    22    23    1
    42    22    44    1
    43    22    45    1
    44    23    24    1
    45    23    46    1
    46    23    47    1
    47    24    25    1
    48    24    48    1
    49    24    49    1
    50    26    27    1
    51    26    50    1
    52    26    51    1
    53    27    28    1
    54    27    52    1
    55    27    53    1
@<TRIPOS>SUBSTRUCTURE
     1 ZINC001340305486        1 TEMP              0 ****  ****    0 ROOT


##########                                Name:    ZINC000509132103
##########                DOCK_Rotatable_Bonds:                   7
##########                         Heavy_Atoms:                  29
##########                    Molecular_Weight:              405.52
##########                DOCK_Rotatable_Bonds:                   7
##########                       Formal_Charge:          -0.0499998
##########                     HBond_Acceptors:                   6
##########                        HBond_Donors:                   0
##########                         Heavy_Atoms:                  29
##########                          Grid_Score:          -39.246223
##########                     Grid_vdw_energy:          -38.931320
##########                      Grid_es_energy:           -0.314903
##########           Internal_energy_repulsive:           17.789898

@<TRIPOS>MOLECULE
ZINC000509132103
 52 55 1 0 0
SMALL
USER_CHARGES


@<TRIPOS>ATOM
      1 C1         -2.8702    2.2775   51.1749 C.3     1  ZINC000509132103    0.0300
      2 O2         -3.7570    1.2782   50.6678 O.3     1  ZINC000509132103   -0.3000
      3 C3         -5.0358    1.3024   51.1208 C.ar    1  ZINC000509132103    0.2700
      4 C4         -5.4292    2.2589   52.0530 C.ar    1  ZINC000509132103   -0.1300
      5 C5         -6.7470    2.2416   52.4846 C.ar    1  ZINC000509132103   -0.0700
      6 C6         -7.5915    1.2732   51.9616 C.ar    1  ZINC000509132103    0.0500
      7 C7         -9.0324    1.2137   52.3990 C.3     1  ZINC000509132103   -0.0500
      8 S8         -9.5961   -0.5104   52.3909 S.3     1  ZINC000509132103   -0.1500
      9 C9        -11.3566   -0.3661   52.8035 C.3     1  ZINC000509132103   -0.1300
     10 C10       -11.9860   -1.7354   52.8053 C.2     1  ZINC000509132103    0.5400
     11 O11       -12.6795   -2.0853   51.8738 O.2     1  ZINC000509132103   -0.5100
     12 N12       -11.7782   -2.5712   53.8420 N.am    1  ZINC000509132103   -0.6100
     13 C13       -12.3765   -3.9102   53.8739 C.3     1  ZINC000509132103    0.1500
     14 C14       -12.9494   -4.1778   55.2431 C.ar    1  ZINC000509132103   -0.1000
     15 C15       -13.7669   -5.2887   55.3971 C.ar    1  ZINC000509132103   -0.1100
     16 C16       -14.3125   -5.5917   56.6280 C.ar    1  ZINC000509132103   -0.1200
     17 C17       -14.0412   -4.7830   57.7156 C.ar    1  ZINC000509132103   -0.1200
     18 C18       -13.2320   -3.6763   57.5628 C.ar    1  ZINC000509132103   -0.1100
     19 C19       -12.6862   -3.3654   56.3236 C.ar    1  ZINC000509132103   -0.0600
     20 C20       -11.8346   -2.1271   56.2264 C.3     1  ZINC000509132103   -0.0200
     21 H21       -12.4808   -1.2513   56.1676 H       1  ZINC000509132103    0.1000
     22 C22       -10.9694   -2.0228   57.4559 C.ar    1  ZINC000509132103   -0.0800
     23 C23       -10.1599   -3.0815   57.8230 C.ar    1  ZINC000509132103   -0.1100
     24 C24        -9.3662   -2.9858   58.9508 C.ar    1  ZINC000509132103   -0.1200
     25 C25        -9.3818   -1.8315   59.7112 C.ar    1  ZINC000509132103   -0.1200
     26 C26       -10.1907   -0.7726   59.3434 C.ar    1  ZINC000509132103   -0.1200
     27 C27       -10.9811   -0.8665   58.2132 C.ar    1  ZINC000509132103   -0.1100
     28 C28       -10.9367   -2.1792   54.9847 C.3     1  ZINC000509132103    0.1200
     29 N29        -7.1331    0.4052   51.0814 N.ar    1  ZINC000509132103   -0.1900
     30 N30        -5.9159    0.4202   50.6744 N.ar    1  ZINC000509132103   -0.3000
     31 H31        -2.7988    2.1839   52.2586 H       1  ZINC000509132103    0.0600
     32 H32        -1.8826    2.1449   50.7330 H       1  ZINC000509132103    0.1000
     33 H33        -3.2526    3.2659   50.9200 H       1  ZINC000509132103    0.0600
     34 H34        -4.7298    2.9912   52.4284 H       1  ZINC000509132103    0.1600
     35 H35        -7.1051    2.9604   53.2067 H       1  ZINC000509132103    0.1600
     36 H36        -9.1236    1.6211   53.4058 H       1  ZINC000509132103    0.1100
     37 H37        -9.6447    1.7993   51.7132 H       1  ZINC000509132103    0.1000
     38 H38       -11.4627    0.0839   53.7906 H       1  ZINC000509132103    0.1100
     39 H39       -11.8531    0.2611   52.0631 H       1  ZINC000509132103    0.1100
     40 H40       -13.1711   -3.9703   53.1302 H       1  ZINC000509132103    0.1000
     41 H41       -11.6126   -4.6543   53.6485 H       1  ZINC000509132103    0.0900
     42 H42       -13.9779   -5.9207   54.5471 H       1  ZINC000509132103    0.1200
     43 H43       -14.9485   -6.4572   56.7410 H       1  ZINC000509132103    0.1300
     44 H44       -14.4620   -5.0167   58.6823 H       1  ZINC000509132103    0.1200
     45 H45       -13.0211   -3.0457   58.4138 H       1  ZINC000509132103    0.1200
     46 H46       -10.1477   -3.9834   57.2290 H       1  ZINC000509132103    0.1200
     47 H47        -8.7342   -3.8132   59.2382 H       1  ZINC000509132103    0.1200
     48 H48        -8.7623   -1.7570   60.5927 H       1  ZINC000509132103    0.1200
     49 H49       -10.2031    0.1292   59.9376 H       1  ZINC000509132103    0.1200
     50 H50       -11.6131   -0.0392   57.9259 H       1  ZINC000509132103    0.1200
     51 H51       -10.1436   -2.9119   55.1337 H       1  ZINC000509132103    0.0800
     52 H52       -10.5022   -1.1963   54.8023 H       1  ZINC000509132103    0.1000
@<TRIPOS>BOND
     1     1     2    1
     2     1    31    1
     3     1    32    1
     4     1    33    1
     5     2     3    1
     6     3    30   ar
     7     3     4   ar
     8     4     5   ar
     9     4    34    1
    10     5     6   ar
    11     5    35    1
    12     6     7    1
    13     6    29   ar
    14     7     8    1
    15     7    36    1
    16     7    37    1
    17     8     9    1
    18     9    10    1
    19     9    38    1
    20     9    39    1
    21    10    11    2
    22    10    12   am
    23    12    28    1
    24    12    13    1
    25    13    14    1
    26    13    40    1
    27    13    41    1
    28    14    19   ar
    29    14    15   ar
    30    15    16   ar
    31    15    42    1
    32    16    17   ar
    33    16    43    1
    34    17    18   ar
    35    17    44    1
    36    18    19   ar
    37    18    45    1
    38    19    20    1
    39    20    21    1
    40    20    22    1
    41    20    28    1
    42    22    27   ar
    43    22    23   ar
    44    23    24   ar
    45    23    46    1
    46    24    25   ar
    47    24    47    1
    48    25    26   ar
    49    25    48    1
    50    26    27   ar
    51    26    49    1
    52    27    50    1
    53    28    51    1
    54    28    52    1
    55    29    30   ar
@<TRIPOS>SUBSTRUCTURE
     1 ZINC000509132103        1 TEMP              0 ****  ****    0 ROOT


##########                                Name:    ZINC000512699033
##########                DOCK_Rotatable_Bonds:                   9
##########                         Heavy_Atoms:                  30
##########                    Molecular_Weight:              405.54
##########                DOCK_Rotatable_Bonds:                   9
##########                       Formal_Charge:           0.0199988
##########                     HBond_Acceptors:                   5
##########                        HBond_Donors:                   2
##########                         Heavy_Atoms:                  30
##########                          Grid_Score:          -39.189888
##########                     Grid_vdw_energy:          -38.542904
##########                      Grid_es_energy:           -0.646983
##########           Internal_energy_repulsive:           13.546577

@<TRIPOS>MOLECULE
ZINC000512699033
 61 64 1 0 0
SMALL
USER_CHARGES


@<TRIPOS>ATOM
      1 O1        -10.6898   -3.8707   53.3146 O.2     1  ZINC000512699033   -0.5100
      2 C2        -11.0125   -2.7324   53.5814 C.2     1  ZINC000512699033    0.5200
      3 C3        -10.3739   -1.5779   52.8531 C.3     1  ZINC000512699033   -0.1500
      4 C4        -11.3792   -0.4306   52.7348 C.3     1  ZINC000512699033    0.1300
      5 N5        -12.4989   -0.8479   51.8873 N.am    1  ZINC000512699033   -0.7300
      6 C6        -13.1933    0.0711   51.1875 C.2     1  ZINC000512699033    0.5200
      7 O7        -12.8905    1.2433   51.2583 O.2     1  ZINC000512699033   -0.5300
      8 C8        -14.3464   -0.3579   50.3171 C.3     1  ZINC000512699033   -0.1100
      9 C9        -13.8350   -0.6660   48.9085 C.3     1  ZINC000512699033   -0.1100
     10 C10       -15.0057   -1.1016   48.0249 C.3     1  ZINC000512699033   -0.1200
     11 C11       -15.6535   -2.3544   48.6176 C.3     1  ZINC000512699033   -0.1200
     12 C12       -16.1649   -2.0463   50.0264 C.3     1  ZINC000512699033   -0.1200
     13 C13       -14.9943   -1.6108   50.9100 C.3     1  ZINC000512699033   -0.1000
     14 N14       -11.9462   -2.5001   54.5252 N.am    1  ZINC000512699033   -0.6600
     15 C15       -12.5391   -3.5722   55.2014 C.ar    1  ZINC000512699033    0.1700
     16 C16       -13.5269   -4.3254   54.5809 C.ar    1  ZINC000512699033   -0.1400
     17 C17       -14.1098   -5.3834   55.2510 C.ar    1  ZINC000512699033   -0.1000
     18 C18       -13.7111   -5.6922   56.5383 C.ar    1  ZINC000512699033   -0.1400
     19 C19       -12.7276   -4.9439   57.1591 C.ar    1  ZINC000512699033   -0.0900
     20 C20       -12.1368   -3.8886   56.4926 C.ar    1  ZINC000512699033   -0.1200
     21 C21       -11.0651   -3.0738   57.1697 C.3     1  ZINC000512699033    0.0900
     22 N22       -11.0448   -3.3875   58.6048 N.3     1  ZINC000512699033   -0.4700
     23 C23        -9.6917   -3.7984   59.0384 C.3     1  ZINC000512699033    0.0500
     24 C24        -9.6446   -3.3125   60.5052 C.3     1  ZINC000512699033   -0.0900
     25 C25       -10.6431   -2.1722   60.5144 C.ar    1  ZINC000512699033   -0.1400
     26 C26       -10.8585   -1.1522   61.4167 C.ar    1  ZINC000512699033   -0.0800
     27 C27       -11.8514   -0.2176   61.1828 C.ar    1  ZINC000512699033   -0.1400
     28 C28       -12.6275   -0.3079   60.0420 C.ar    1  ZINC000512699033   -0.0900
     29 C29       -12.4174   -1.3278   59.1371 C.ar    1  ZINC000512699033   -0.1400
     30 C30       -11.4212   -2.2748   59.3671 C.ar    1  ZINC000512699033    0.0900
     31 H31        -9.4986   -1.2383   53.4070 H       1  ZINC000512699033    0.1100
     32 H32       -10.0710   -1.8998   51.8567 H       1  ZINC000512699033    0.1000
     33 H33       -11.7510   -0.1696   53.7256 H       1  ZINC000512699033    0.0800
     34 H34       -10.8904    0.4363   52.2903 H       1  ZINC000512699033    0.0800
     35 H35       -12.7404   -1.7855   51.8297 H       1  ZINC000512699033    0.4000
     36 H36       -15.0832    0.4440   50.2690 H       1  ZINC000512699033    0.1000
     37 H37       -13.3735    0.2266   48.4861 H       1  ZINC000512699033    0.0700
     38 H38       -13.0983   -1.4678   48.9567 H       1  ZINC000512699033    0.0700
     39 H39       -15.7424   -0.2997   47.9766 H       1  ZINC000512699033    0.0600
     40 H40       -14.6415   -1.3210   47.0213 H       1  ZINC000512699033    0.0700
     41 H41       -16.4876   -2.6647   47.9881 H       1  ZINC000512699033    0.0600
     42 H42       -14.9167   -3.1563   48.6659 H       1  ZINC000512699033    0.0600
     43 H43       -16.9017   -1.2445   49.9782 H       1  ZINC000512699033    0.0600
     44 H44       -16.6265   -2.9390   50.4486 H       1  ZINC000512699033    0.0700
     45 H45       -14.2574   -2.4126   50.9581 H       1  ZINC000512699033    0.0700
     46 H46       -15.3586   -1.3913   51.9135 H       1  ZINC000512699033    0.0700
     47 H47       -12.2072   -1.5900   54.7357 H       1  ZINC000512699033    0.4200
     48 H48       -13.8392   -4.0841   53.5756 H       1  ZINC000512699033    0.1500
     49 H49       -14.8782   -5.9695   54.7689 H       1  ZINC000512699033    0.1300
     50 H50       -14.1690   -6.5194   57.0603 H       1  ZINC000512699033    0.1200
     51 H51       -12.4182   -5.1877   58.1647 H       1  ZINC000512699033    0.1200
     52 H52       -10.0959   -3.3126   56.7318 H       1  ZINC000512699033    0.0600
     53 H53       -11.2743   -2.0129   57.0327 H       1  ZINC000512699033    0.0900
     54 H54        -9.5812   -4.8815   58.9860 H       1  ZINC000512699033    0.1000
     55 H55        -8.9269   -3.3013   58.4417 H       1  ZINC000512699033    0.0600
     56 H56        -9.9578   -4.1052   61.1847 H       1  ZINC000512699033    0.0900
     57 H57        -8.6474   -2.9545   60.7615 H       1  ZINC000512699033    0.0800
     58 H58       -10.2517   -1.0829   62.3074 H       1  ZINC000512699033    0.1200
     59 H59       -12.0204    0.5807   61.8902 H       1  ZINC000512699033    0.1300
     60 H60       -13.4014    0.4227   59.8588 H       1  ZINC000512699033    0.1300
     61 H61       -13.0272   -1.3929   58.2480 H       1  ZINC000512699033    0.1200
@<TRIPOS>BOND
     1     1     2    2
     2     2     3    1
     3     2    14   am
     4     3     4    1
     5     3    31    1
     6     3    32    1
     7     4     5    1
     8     4    33    1
     9     4    34    1
    10     5     6   am
    11     5    35    1
    12     6     7    2
    13     6     8    1
    14     8    13    1
    15     8     9    1
    16     8    36    1
    17     9    10    1
    18     9    37    1
    19     9    38    1
    20    10    11    1
    21    10    39    1
    22    10    40    1
    23    11    12    1
    24    11    41    1
    25    11    42    1
    26    12    13    1
    27    12    43    1
    28    12    44    1
    29    13    45    1
    30    13    46    1
    31    14    15    1
    32    14    47    1
    33    15    20   ar
    34    15    16   ar
    35    16    17   ar
    36    16    48    1
    37    17    18   ar
    38    17    49    1
    39    18    19   ar
    40    18    50    1
    41    19    20   ar
    42    19    51    1
    43    20    21    1
    44    21    22    1
    45    21    52    1
    46    21    53    1
    47    22    30    1
    48    22    23    1
    49    23    24    1
    50    23    54    1
    51    23    55    1
    52    24    25    1
    53    24    56    1
    54    24    57    1
    55    25    30   ar
    56    25    26   ar
    57    26    27   ar
    58    26    58    1
    59    27    28   ar
    60    27    59    1
    61    28    29   ar
    62    28    60    1
    63    29    30   ar
    64    29    61    1
@<TRIPOS>SUBSTRUCTURE
     1 ZINC000512699033        1 TEMP              0 ****  ****    0 ROOT


##########                                Name:    ZINC000552360217
##########                DOCK_Rotatable_Bonds:                  13
##########                         Heavy_Atoms:                  27
##########                    Molecular_Weight:             401.484
##########                DOCK_Rotatable_Bonds:                  13
##########                       Formal_Charge:          -0.0100002
##########                     HBond_Acceptors:                  10
##########                        HBond_Donors:                   3
##########                         Heavy_Atoms:                  27
##########                          Grid_Score:          -39.015869
##########                     Grid_vdw_energy:          -38.501991
##########                      Grid_es_energy:           -0.513877
##########           Internal_energy_repulsive:           18.483898

@<TRIPOS>MOLECULE
ZINC000552360217
 54 54 1 0 0
SMALL
USER_CHARGES


@<TRIPOS>ATOM
      1 C1         -8.9285   -1.9331   61.6090 C.3     1  ZINC000552360217    0.0800
      2 N2         -9.5630   -0.6525   61.9316 N.am    1  ZINC000552360217   -1.0000
      3 C3         -9.3433   -0.0359   63.2422 C.3     1  ZINC000552360217    0.0900
      4 S4        -10.5284    0.0978   60.8148 S.o2    1  ZINC000552360217    2.7000
      5 O5        -11.1058    1.2179   61.4715 O.2     1  ZINC000552360217   -0.9500
      6 O6         -9.7573    0.2063   59.6261 O.2     1  ZINC000552360217   -0.9500
      7 C7        -11.8548   -1.0026   60.4487 C.ar    1  ZINC000552360217   -0.6900
      8 C8        -13.0220   -0.9472   61.1893 C.ar    1  ZINC000552360217    0.0100
      9 C9        -14.0687   -1.8077   60.9080 C.ar    1  ZINC000552360217   -0.1400
     10 C10       -13.9542   -2.7270   59.8861 C.ar    1  ZINC000552360217   -0.0300
     11 C11       -12.7792   -2.7881   59.1349 C.ar    1  ZINC000552360217   -0.1600
     12 C12       -12.6497   -3.7707   58.0378 C.2     1  ZINC000552360217    0.5600
     13 O13       -11.5823   -3.9157   57.4745 O.2     1  ZINC000552360217   -0.5300
     14 N14       -13.7151   -4.5057   57.6623 N.am    1  ZINC000552360217   -0.7100
     15 C15       -13.5864   -5.4806   56.5763 C.3     1  ZINC000552360217    0.1000
     16 C16       -13.9665   -4.8313   55.2706 C.2     1  ZINC000552360217    0.5100
     17 O17       -15.0232   -5.1052   54.7421 O.2     1  ZINC000552360217   -0.5400
     18 N18       -13.1320   -3.9464   54.6899 N.am    1  ZINC000552360217   -0.7200
     19 C19       -13.5023   -3.3140   53.4214 C.3     1  ZINC000552360217    0.1400
     20 C20       -12.2701   -2.6493   52.8042 C.3     1  ZINC000552360217    0.1000
     21 C21       -11.8673   -1.4385   53.6484 C.3     1  ZINC000552360217   -0.1800
     22 C22       -11.1149   -3.6517   52.7664 C.3     1  ZINC000552360217   -0.1800
     23 O23       -12.5746   -2.2229   51.4747 O.3     1  ZINC000552360217   -0.3700
     24 C24       -13.7228   -1.3770   51.3842 C.3     1  ZINC000552360217    0.0600
     25 C25       -13.9699   -1.0075   49.9202 C.3     1  ZINC000552360217    0.0800
     26 O26       -14.1669   -2.1983   49.1551 O.3     1  ZINC000552360217   -0.5700
     27 C27       -11.7293   -1.9140   59.4204 C.ar    1  ZINC000552360217    0.0400
     28 H28        -9.5891   -2.7496   61.9007 H       1  ZINC000552360217    0.0600
     29 H29        -8.7388   -1.9847   60.5368 H       1  ZINC000552360217    0.0900
     30 H30        -7.9856   -2.0177   62.1493 H       1  ZINC000552360217    0.0800
     31 H31        -8.6860   -0.6704   63.8367 H       1  ZINC000552360217    0.0800
     32 H32        -8.8819    0.9428   63.1105 H       1  ZINC000552360217    0.0700
     33 H33       -10.2985    0.0787   63.7545 H       1  ZINC000552360217    0.0600
     34 H34       -13.1166   -0.2295   61.9908 H       1  ZINC000552360217    0.1500
     35 H35       -14.9770   -1.7594   61.4902 H       1  ZINC000552360217    0.1400
     36 H36       -14.7717   -3.3981   59.6678 H       1  ZINC000552360217    0.1400
     37 H37       -14.5672   -4.3893   58.1109 H       1  ZINC000552360217    0.4100
     38 H38       -12.5551   -5.8297   56.5218 H       1  ZINC000552360217    0.1000
     39 H39       -14.2467   -6.3265   56.7673 H       1  ZINC000552360217    0.1000
     40 H40       -12.2863   -3.7284   55.1120 H       1  ZINC000552360217    0.4100
     41 H41       -13.8882   -4.0699   52.7375 H       1  ZINC000552360217    0.0800
     42 H42       -14.2696   -2.5610   53.6012 H       1  ZINC000552360217    0.0900
     43 H43       -11.6350   -1.7637   54.6625 H       1  ZINC000552360217    0.0700
     44 H44       -10.9895   -0.9649   53.2087 H       1  ZINC000552360217    0.0700
     45 H45       -12.6902   -0.7243   53.6754 H       1  ZINC000552360217    0.0700
     46 H46       -11.4020   -4.5143   52.1649 H       1  ZINC000552360217    0.0600
     47 H47       -10.2372   -3.1781   52.3266 H       1  ZINC000552360217    0.0700
     48 H48       -10.8827   -3.9769   53.7804 H       1  ZINC000552360217    0.0700
     49 H49       -14.5929   -1.9021   51.7783 H       1  ZINC000552360217    0.0600
     50 H50       -13.5524   -0.4699   51.9641 H       1  ZINC000552360217    0.0700
     51 H51       -14.8575   -0.3789   49.8490 H       1  ZINC000552360217    0.0600
     52 H52       -13.1081   -0.4647   49.5321 H       1  ZINC000552360217    0.0500
     53 H53       -13.4196   -2.8115   49.1826 H       1  ZINC000552360217    0.3800
     54 H54       -10.8177   -1.9563   58.8429 H       1  ZINC000552360217    0.1500
@<TRIPOS>BOND
     1     1     2    1
     2     1    28    1
     3     1    29    1
     4     1    30    1
     5     2     3    1
     6     2     4   am
     7     3    31    1
     8     3    32    1
     9     3    33    1
    10     4     5    2
    11     4     6    2
    12     4     7    1
    13     7    27   ar
    14     7     8   ar
    15     8     9   ar
    16     8    34    1
    17     9    10   ar
    18     9    35    1
    19    10    11   ar
    20    10    36    1
    21    11    12    1
    22    11    27   ar
    23    12    13    2
    24    12    14   am
    25    14    15    1
    26    14    37    1
    27    15    16    1
    28    15    38    1
    29    15    39    1
    30    16    17    2
    31    16    18   am
    32    18    19    1
    33    18    40    1
    34    19    20    1
    35    19    41    1
    36    19    42    1
    37    20    21    1
    38    20    22    1
    39    20    23    1
    40    21    43    1
    41    21    44    1
    42    21    45    1
    43    22    46    1
    44    22    47    1
    45    22    48    1
    46    23    24    1
    47    24    25    1
    48    24    49    1
    49    24    50    1
    50    25    26    1
    51    25    51    1
    52    25    52    1
    53    26    53    1
    54    27    54    1
@<TRIPOS>SUBSTRUCTURE
     1 ZINC000552360217        1 TEMP              0 ****  ****    0 ROOT


##########                                Name:     oleObject42.pdb
##########                DOCK_Rotatable_Bonds:                   9
##########                         Heavy_Atoms:                  36
##########                    Molecular_Weight:             527.493
##########                DOCK_Rotatable_Bonds:                   9
##########                       Formal_Charge:         9.99384e-05
##########                     HBond_Acceptors:                   8
##########                        HBond_Donors:                   0
##########                         Heavy_Atoms:                  36
##########                          Grid_Score:          -39.012012
##########                     Grid_vdw_energy:          -38.749954
##########                      Grid_es_energy:           -0.262058
##########           Internal_energy_repulsive:           49.272461

@<TRIPOS>MOLECULE
oleObject42.pdb
 68 71 1 0 0
SMALL
NO_CHARGES


@<TRIPOS>ATOM
      1 C         -13.1049    2.5225   55.2635 C.ar    1  UNL        -0.0435
      2 C         -14.3437    1.8793   55.1285 C.ar    1  UNL        -0.0559
      3 C         -14.4105    0.6572   54.4331 C.ar    1  UNL        -0.0272
      4 C         -13.2137    0.1226   53.8929 C.ar    1  UNL         0.0699
      5 N         -12.0244    0.7541   54.0306 N.ar    1  UNL        -0.2586
      6 C         -11.9707    1.9220   54.6977 C.ar    1  UNL         0.0272
      7 C         -13.1996   -1.2081   53.1212 C.3     1  UNL         0.1101
      8 C         -13.7588   -1.0878   51.6902 C.ar    1  UNL         0.0699
      9 C         -13.4857    0.0464   50.8845 C.ar    1  UNL        -0.0272
     10 C         -14.0367    0.0977   49.5901 C.ar    1  UNL        -0.0559
     11 C         -14.8332   -0.9664   49.1434 C.ar    1  UNL        -0.0435
     12 C         -15.0550   -2.0484   50.0077 C.ar    1  UNL         0.0272
     13 N         -14.5337   -2.1059   51.2472 N.ar    1  UNL        -0.2586
     14 C         -12.6198    1.2021   51.3740 C.3     1  UNL        -0.0379
     15 N         -11.8907   -1.9128   53.2114 N.am    1  UNL        -0.2902
     16 C         -11.3940   -2.4416   54.4035 C.2     1  UNL         0.2180
     17 O         -10.4606   -3.2272   54.3861 O.2     1  UNL        -0.2772
     18 C         -12.2682   -2.2704   55.6699 C.3     1  UNL         0.0385
     19 C         -11.6482   -1.2435   56.6479 C.3     1  UNL        -0.0289
     20 C         -10.4264   -1.8150   57.3988 C.3     1  UNL        -0.0010
     21 N         -10.7626   -3.0720   58.1017 N.4     1  UNL        -0.3010
     22 C         -11.3250   -4.1202   57.2215 C.3     1  UNL        -0.0010
     23 C         -12.5364   -3.6105   56.4041 C.3     1  UNL        -0.0289
     24 C          -9.7002   -3.5557   59.0111 C.3     1  UNL         0.0222
     25 C          -9.7847   -2.9768   60.4412 C.3     1  UNL         0.0661
     26 O          -9.2936   -1.6278   60.3997 O.3     1  UNL        -0.3432
     27 C          -9.3995   -0.8466   61.5240 C.ar    1  UNL         0.0937
     28 C          -8.7573   -1.2580   62.7041 C.ar    1  UNL        -0.0288
     29 C          -8.8541   -0.4759   63.8670 C.ar    1  UNL        -0.0408
     30 C          -9.5968    0.7165   63.8490 C.ar    1  UNL         0.0422
     31 C         -10.2445    1.1279   62.6721 C.ar    1  UNL        -0.0221
     32 C         -10.1486    0.3472   61.5078 C.ar    1  UNL         0.0723
     33 CL        -10.9706    0.8801   60.0531 Cl      1  UNL        -0.0814
     34 CL         -9.7179    1.6912   65.2982 Cl      1  UNL        -0.0843
     35 C         -11.0459   -1.8892   52.0004 C.3     1  UNL         0.0038
     36 C         -15.7556   -0.0462   54.2878 C.3     1  UNL        -0.0379
     37 H         -13.0245    3.4655   55.7961 H       1  UNL         0.0639
     38 H         -15.2365    2.3238   55.5593 H       1  UNL         0.0627
     39 H         -10.9896    2.3879   54.7809 H       1  UNL         0.0840
     40 H         -13.9104   -1.8492   53.6489 H       1  UNL         0.0643
     41 H         -13.8505    0.9475   48.9395 H       1  UNL         0.0627
     42 H         -15.2696   -0.9537   48.1490 H       1  UNL         0.0639
     43 H         -15.6675   -2.8949   49.6999 H       1  UNL         0.0840
     44 H         -13.0807    1.7052   52.2330 H       1  UNL         0.0280
     45 H         -12.4755    1.9577   50.5916 H       1  UNL         0.0280
     46 H         -11.6245    0.8534   51.6755 H       1  UNL         0.0280
     47 H         -13.2495   -1.8925   55.3651 H       1  UNL         0.0402
     48 H         -12.4069   -0.9493   57.3847 H       1  UNL         0.0288
     49 H         -11.3592   -0.3311   56.1129 H       1  UNL         0.0288
     50 H         -10.0755   -1.0666   58.1210 H       1  UNL         0.0431
     51 H          -9.6167   -1.9900   56.6790 H       1  UNL         0.0431
     52 H         -11.6469   -4.9781   57.8256 H       1  UNL         0.0431
     53 H         -10.5542   -4.4805   56.5302 H       1  UNL         0.0431
     54 H         -13.3782   -3.4670   57.0939 H       1  UNL         0.0288
     55 H         -12.8508   -4.3770   55.6842 H       1  UNL         0.0288
     56 H          -8.7191   -3.3026   58.5895 H       1  UNL         0.0455
     57 H          -9.7508   -4.6502   59.0753 H       1  UNL         0.0455
     58 H          -9.1742   -3.5766   61.1272 H       1  UNL         0.0586
     59 H         -10.8231   -2.9873   60.7946 H       1  UNL         0.0586
     60 H          -8.1853   -2.1813   62.7155 H       1  UNL         0.0652
     61 H          -8.3558   -0.7943   64.7782 H       1  UNL         0.0639
     62 H         -10.8202    2.0490   62.6626 H       1  UNL         0.0655
     63 H         -11.6674   -1.8745   51.0964 H       1  UNL         0.0433
     64 H         -10.4115   -2.7840   51.9683 H       1  UNL         0.0433
     65 H         -10.4069   -0.9973   52.0135 H       1  UNL         0.0433
     66 H         -16.5544    0.4997   54.8052 H       1  UNL         0.0280
     67 H         -15.7246   -1.0560   54.7147 H       1  UNL         0.0280
     68 H         -16.0470   -0.1284   53.2337 H       1  UNL         0.0280
@<TRIPOS>BOND
     1     1     2   ar
     2     1     6   ar
     3     1    37    1
     4     2     3   ar
     5     2    38    1
     6     3     4   ar
     7     3    36    1
     8     4     5   ar
     9     4     7    1
    10     5     6   ar
    11     6    39    1
    12     7     8    1
    13     7    15    1
    14     7    40    1
    15     8     9   ar
    16     8    13   ar
    17     9    10   ar
    18     9    14    1
    19    10    11   ar
    20    10    41    1
    21    11    12   ar
    22    11    42    1
    23    12    13   ar
    24    12    43    1
    25    14    44    1
    26    14    45    1
    27    14    46    1
    28    15    16   am
    29    15    35    1
    30    16    17    2
    31    16    18    1
    32    18    19    1
    33    18    23    1
    34    18    47    1
    35    19    20    1
    36    19    48    1
    37    19    49    1
    38    20    21    1
    39    20    50    1
    40    20    51    1
    41    21    22    1
    42    21    24    1
    43    22    23    1
    44    22    52    1
    45    22    53    1
    46    23    54    1
    47    23    55    1
    48    24    25    1
    49    24    56    1
    50    24    57    1
    51    25    26    1
    52    25    58    1
    53    25    59    1
    54    26    27    1
    55    27    28   ar
    56    27    32   ar
    57    28    29   ar
    58    28    60    1
    59    29    30   ar
    60    29    61    1
    61    30    31   ar
    62    30    34    1
    63    31    32   ar
    64    31    62    1
    65    32    33    1
    66    35    63    1
    67    35    64    1
    68    35    65    1
    69    36    66    1
    70    36    67    1
    71    36    68    1
@<TRIPOS>SUBSTRUCTURE
     1 UNL         1 TEMP              0 ****  ****    0 ROOT


##########                                Name:    ZINC000302023461
##########                DOCK_Rotatable_Bonds:                   3
##########                         Heavy_Atoms:                  25
##########                    Molecular_Weight:             356.362
##########                DOCK_Rotatable_Bonds:                   3
##########                       Formal_Charge:        -2.08616e-07
##########                     HBond_Acceptors:                   9
##########                        HBond_Donors:                   1
##########                         Heavy_Atoms:                  25
##########                          Grid_Score:          -38.976498
##########                     Grid_vdw_energy:          -35.349758
##########                      Grid_es_energy:           -3.626740
##########           Internal_energy_repulsive:           20.706707

@<TRIPOS>MOLECULE
ZINC000302023461
 37 40 1 0 0
SMALL
USER_CHARGES


@<TRIPOS>ATOM
      1 O1        -14.5995   -5.4130   55.5744 O.2     1  ZINC000302023461   -0.1600
      2 N2        -13.5517   -5.2114   56.1618 N.pl3   1  ZINC000302023461    0.0200
      3 O3        -13.1145   -6.0479   56.9317 O.2     1  ZINC000302023461   -0.1300
      4 C4        -12.8066   -3.9525   55.9354 C.ar    1  ZINC000302023461    0.0000
      5 C5        -13.3013   -3.0038   55.0629 C.ar    1  ZINC000302023461   -0.0600
      6 C6        -12.6058   -1.8272   54.8508 C.ar    1  ZINC000302023461   -0.0900
      7 C7        -11.4131   -1.5964   55.5115 C.ar    1  ZINC000302023461   -0.0800
      8 C8        -10.9121   -2.5409   56.3857 C.ar    1  ZINC000302023461   -0.0500
      9 C9        -11.6108   -3.7217   56.6053 C.ar    1  ZINC000302023461   -0.1100
     10 S10       -10.9758   -4.9294   57.7201 S.3     1  ZINC000302023461    0.1900
     11 C11       -10.0982   -3.9578   58.8992 C.2     1  ZINC000302023461    0.2100
     12 N12        -8.8265   -4.0885   59.1995 N.2     1  ZINC000302023461   -0.3200
     13 N13        -8.5356   -3.1244   60.1782 N.pl3   1  ZINC000302023461   -0.4700
     14 C14        -9.6879   -2.4558   60.4096 C.2     1  ZINC000302023461    0.3500
     15 C15        -9.8712   -1.3432   61.3663 C.ar    1  ZINC000302023461   -0.0400
     16 C16       -10.8752   -0.3976   61.1557 C.ar    1  ZINC000302023461   -0.0900
     17 C17       -11.0427    0.6398   62.0485 C.ar    1  ZINC000302023461   -0.1100
     18 C18       -10.2153    0.7485   63.1583 C.ar    1  ZINC000302023461    0.0800
     19 O19       -10.3932    1.7852   64.0215 O.3     1  ZINC000302023461   -0.3000
     20 C20        -9.7937    1.6565   65.3151 C.3     1  ZINC000302023461    0.0200
     21 C21        -8.3533    1.1606   65.1305 C.3     1  ZINC000302023461    0.0200
     22 O22        -8.3973   -0.1043   64.4612 O.3     1  ZINC000302023461   -0.3000
     23 C23        -9.2139   -0.1937   63.3756 C.ar    1  ZINC000302023461    0.0500
     24 C24        -9.0440   -1.2393   62.4854 C.ar    1  ZINC000302023461   -0.0500
     25 N25       -10.6177   -2.9667   59.6268 N.2     1  ZINC000302023461   -0.5000
     26 H26       -14.2325   -3.1808   54.5453 H       1  ZINC000302023461    0.1600
     27 H27       -12.9948   -1.0870   54.1673 H       1  ZINC000302023461    0.1500
     28 H28       -10.8726   -0.6766   55.3435 H       1  ZINC000302023461    0.1500
     29 H29        -9.9802   -2.3603   56.9009 H       1  ZINC000302023461    0.1600
     30 H30        -7.6780   -2.9690   60.6040 H       1  ZINC000302023461    0.4400
     31 H31       -11.5207   -0.4780   60.2935 H       1  ZINC000302023461    0.1300
     32 H32       -11.8204    1.3710   61.8837 H       1  ZINC000302023461    0.1500
     33 H33        -9.7878    2.6249   65.8155 H       1  ZINC000302023461    0.1300
     34 H34       -10.3564    0.9378   65.9111 H       1  ZINC000302023461    0.0800
     35 H35        -7.7925    1.8757   64.5285 H       1  ZINC000302023461    0.0800
     36 H36        -7.8766    1.0450   66.1039 H       1  ZINC000302023461    0.1300
     37 H37        -8.2690   -1.9723   62.6544 H       1  ZINC000302023461    0.1600
@<TRIPOS>BOND
     1     1     2    2
     2     2     3    2
     3     2     4    1
     4     4     9   ar
     5     4     5   ar
     6     5     6   ar
     7     5    26    1
     8     6     7   ar
     9     6    27    1
    10     7     8   ar
    11     7    28    1
    12     8     9   ar
    13     8    29    1
    14     9    10    1
    15    10    11    1
    16    11    25    1
    17    11    12    2
    18    12    13    1
    19    13    14    1
    20    13    30    1
    21    14    15    1
    22    14    25    2
    23    15    24   ar
    24    15    16   ar
    25    16    17   ar
    26    16    31    1
    27    17    18   ar
    28    17    32    1
    29    18    23   ar
    30    18    19    1
    31    19    20    1
    32    20    21    1
    33    20    33    1
    34    20    34    1
    35    21    22    1
    36    21    35    1
    37    21    36    1
    38    22    23    1
    39    23    24   ar
    40    24    37    1
@<TRIPOS>SUBSTRUCTURE
     1 ZINC000302023461        1 TEMP              0 ****  ****    0 ROOT


##########                                Name:    ZINC000342525234
##########                DOCK_Rotatable_Bonds:                   6
##########                         Heavy_Atoms:                  25
##########                    Molecular_Weight:             333.349
##########                DOCK_Rotatable_Bonds:                   6
##########                       Formal_Charge:           0.0500003
##########                     HBond_Acceptors:                   7
##########                        HBond_Donors:                   2
##########                         Heavy_Atoms:                  25
##########                          Grid_Score:          -38.887966
##########                     Grid_vdw_energy:          -37.363785
##########                      Grid_es_energy:           -1.524180
##########           Internal_energy_repulsive:            5.732967

@<TRIPOS>MOLECULE
ZINC000342525234
 40 43 1 0 0
SMALL
USER_CHARGES


@<TRIPOS>ATOM
      1 O1        -12.0655   -4.3410   52.9278 O.2     1  <0>        -0.5100
      2 C2        -11.8993   -3.6146   53.8874 C.2     1  <0>         0.6000
      3 N3        -12.5215   -3.8839   55.0522 N.am    1  <0>        -0.7100
      4 C4        -13.4029   -5.0491   55.1595 C.3     1  <0>         0.1200
      5 C5        -13.2994   -5.6391   56.5675 C.3     1  <0>        -0.0900
      6 C6        -12.5722   -4.6715   57.4652 C.ar    1  <0>        -0.0400
      7 C7        -11.2462   -4.8484   57.6889 C.ar    1  <0>        -0.1000
      8 C8        -10.5546   -3.9484   58.5280 C.ar    1  <0>         0.1100
      9 N9         -9.3053   -3.8375   58.9414 N.2     1  <0>        -0.3100
     10 N10        -9.2014   -2.7227   59.7812 N.pl3   1  <0>        -0.4200
     11 C11       -10.3951   -2.1256   59.8983 C.2     1  <0>         0.0900
     12 C12       -11.3033   -2.8382   59.1375 C.ar    1  <0>        -0.2100
     13 C13       -12.6816   -2.7156   58.8604 C.ar    1  <0>        -0.0400
     14 C14       -13.2812   -3.6139   58.0396 C.ar    1  <0>        -0.1500
     15 C15       -11.0067   -2.4347   53.7788 C.2     1  <0>        -0.0200
     16 N16       -10.8564   -1.4789   54.6628 N.2     1  <0>        -0.3200
     17 O17       -10.0574   -0.6499   54.2949 O.3     1  <0>         0.1400
     18 C18        -9.5526   -0.9469   53.0846 C.2     1  <0>         0.0100
     19 C19        -8.5547   -0.1640   52.3241 C.ar    1  <0>         0.0200
     20 C20        -8.5812    1.2353   52.3311 C.ar    1  <0>        -0.1400
     21 C21        -7.6307    1.9258   51.6078 C.ar    1  <0>         0.1100
     22 N22        -6.7074    1.2850   50.9169 N.ar    1  <0>        -0.4800
     23 C23        -6.6467   -0.0325   50.8832 C.ar    1  <0>         0.1100
     24 C24        -7.5541   -0.8017   51.5819 C.ar    1  <0>        -0.1500
     25 C25       -10.1403   -2.1191   52.6992 C.2     1  <0>        -0.1500
     26 H26       -12.3857   -3.3062   55.8194 H       1  <0>         0.4100
     27 H27       -14.4319   -4.7452   54.9677 H       1  <0>         0.0800
     28 H28       -13.1035   -5.7997   54.4281 H       1  <0>         0.0800
     29 H29       -14.2999   -5.8181   56.9608 H       1  <0>         0.0900
     30 H30       -12.7508   -6.5802   56.5275 H       1  <0>         0.0800
     31 H31       -10.7227   -5.6730   57.2280 H       1  <0>         0.1300
     32 H32        -8.3858   -2.4263   60.2145 H       1  <0>         0.4500
     33 H33       -10.6099   -1.2439   60.4838 H       1  <0>         0.1900
     34 H34       -13.2542   -1.9095   59.2952 H       1  <0>         0.1300
     35 H35       -14.3363   -3.5138   57.8316 H       1  <0>         0.1200
     36 H36        -9.3345    1.7665   52.8939 H       1  <0>         0.1400
     37 H37        -7.6428    3.0058   51.6069 H       1  <0>         0.1700
     38 H38        -5.8735   -0.5153   50.3039 H       1  <0>         0.1700
     39 H39        -7.4982   -1.8799   51.5498 H       1  <0>         0.1500
     40 H40        -9.9865   -2.6725   51.7846 H       1  <0>         0.1900
@<TRIPOS>BOND
     1     1     2    2
     2     2     3   am
     3     2    15    1
     4     3     4    1
     5     3    26    1
     6     4     5    1
     7     4    27    1
     8     4    28    1
     9     5     6    1
    10     5    29    1
    11     5    30    1
    12     6    14   ar
    13     6     7   ar
    14     7     8   ar
    15     7    31    1
    16     8    12   ar
    17     8     9    2
    18     9    10    1
    19    10    11    1
    20    10    32    1
    21    11    12    2
    22    11    33    1
    23    12    13   ar
    24    13    14   ar
    25    13    34    1
    26    14    35    1
    27    15    25    1
    28    15    16    2
    29    16    17    1
    30    17    18    1
    31    18    19    1
    32    18    25    2
    33    19    24   ar
    34    19    20   ar
    35    20    21   ar
    36    20    36    1
    37    21    22   ar
    38    21    37    1
    39    22    23   ar
    40    23    24   ar
    41    23    38    1
    42    24    39    1
    43    25    40    1
@<TRIPOS>SUBSTRUCTURE
     1 <0>         1 TEMP              0 ****  ****    0 ROOT


##########                                Name:    ZINC000008416770
##########                DOCK_Rotatable_Bonds:                  13
##########                         Heavy_Atoms:                  30
##########                    Molecular_Weight:             412.442
##########                DOCK_Rotatable_Bonds:                  13
##########                       Formal_Charge:          -0.0199998
##########                     HBond_Acceptors:                   8
##########                        HBond_Donors:                   2
##########                         Heavy_Atoms:                  30
##########                          Grid_Score:          -38.870705
##########                     Grid_vdw_energy:          -38.275719
##########                      Grid_es_energy:           -0.594984
##########           Internal_energy_repulsive:            9.901112

@<TRIPOS>MOLECULE
ZINC000008416770
 54 55 1 0 0
SMALL
USER_CHARGES


@<TRIPOS>ATOM
      1 C1         -0.4272    3.8652   52.4079 C.3     1  ZINC000008416770   -0.1500
      2 C2         -1.1479    3.0405   51.3396 C.3     1  ZINC000008416770    0.0600
      3 O3         -2.5455    2.8920   51.7040 O.3     1  ZINC000008416770   -0.3500
      4 C4         -3.3256    2.1859   50.8621 C.2     1  ZINC000008416770    0.5100
      5 O5         -2.8509    1.7075   49.8511 O.2     1  ZINC000008416770   -0.5100
      6 C6         -4.7554    1.9939   51.1677 C.ar    1  ZINC000008416770   -0.1500
      7 C7         -5.5514    1.2065   50.3304 C.ar    1  ZINC000008416770   -0.0400
      8 C8         -6.8855    1.0292   50.6191 C.ar    1  ZINC000008416770   -0.1400
      9 C9         -7.4421    1.6324   51.7426 C.ar    1  ZINC000008416770    0.1800
     10 N10        -8.7937    1.4506   52.0319 N.am    1  ZINC000008416770   -0.6700
     11 C11        -9.2362    0.2510   52.4582 C.2     1  ZINC000008416770    0.5200
     12 O12        -8.4585   -0.6702   52.5904 O.2     1  ZINC000008416770   -0.5100
     13 C13       -10.6972    0.0545   52.7709 C.3     1  ZINC000008416770   -0.1300
     14 C14       -11.1182   -1.3613   52.3717 C.3     1  ZINC000008416770   -0.1000
     15 C15       -10.7121   -2.3296   53.4526 C.2     1  ZINC000008416770    0.4700
     16 O16       -10.1949   -3.3813   53.1585 O.2     1  ZINC000008416770   -0.5100
     17 O17       -10.9249   -2.0239   54.7422 O.3     1  ZINC000008416770   -0.3300
     18 C18       -11.3174   -3.1108   55.6213 C.3     1  ZINC000008416770    0.0500
     19 C19       -11.1429   -2.6844   57.0561 C.2     1  ZINC000008416770    0.5100
     20 O20       -11.8020   -3.2083   57.9291 O.2     1  ZINC000008416770   -0.4900
     21 N21       -10.2542   -1.7208   57.3693 N.am    1  ZINC000008416770   -0.6700
     22 C22       -10.0920   -1.3247   58.7015 C.ar    1  ZINC000008416770    0.1400
     23 C23       -10.7039   -0.1664   59.1624 C.ar    1  ZINC000008416770   -0.1400
     24 C24       -10.5419    0.2218   60.4780 C.ar    1  ZINC000008416770   -0.1000
     25 C25        -9.7711   -0.5413   61.3356 C.ar    1  ZINC000008416770   -0.1000
     26 C26        -9.5962   -0.1145   62.7704 C.3     1  ZINC000008416770   -0.1200
     27 C27        -9.1610   -1.6954   60.8799 C.ar    1  ZINC000008416770   -0.1000
     28 C28        -9.3237   -2.0921   59.5671 C.ar    1  ZINC000008416770   -0.1200
     29 C29        -6.6528    2.4164   52.5785 C.ar    1  ZINC000008416770   -0.1600
     30 C30        -5.3168    2.5942   52.2987 C.ar    1  ZINC000008416770   -0.0300
     31 H31        -0.8901    4.8493   52.4809 H       1  ZINC000008416770    0.0700
     32 H32        -0.4999    3.3571   53.3695 H       1  ZINC000008416770    0.0700
     33 H33         0.6220    3.9766   52.1343 H       1  ZINC000008416770    0.0800
     34 H34        -1.0751    3.5484   50.3780 H       1  ZINC000008416770    0.0700
     35 H35        -0.6850    2.0564   51.2665 H       1  ZINC000008416770    0.0700
     36 H36        -5.1201    0.7383   49.4580 H       1  ZINC000008416770    0.1400
     37 H37        -7.5010    0.4214   49.9725 H       1  ZINC000008416770    0.1400
     38 H38        -9.4157    2.1874   51.9262 H       1  ZINC000008416770    0.4200
     39 H39       -10.8624    0.1951   53.8390 H       1  ZINC000008416770    0.1100
     40 H40       -11.2890    0.7803   52.2130 H       1  ZINC000008416770    0.1100
     41 H41       -12.1998   -1.3955   52.2410 H       1  ZINC000008416770    0.1200
     42 H42       -10.6303   -1.6352   51.4363 H       1  ZINC000008416770    0.1200
     43 H43       -12.3623   -3.3639   55.4419 H       1  ZINC000008416770    0.1100
     44 H44       -10.6933   -3.9821   55.4227 H       1  ZINC000008416770    0.1100
     45 H45        -9.7269   -1.3018   56.6712 H       1  ZINC000008416770    0.4100
     46 H46       -11.3053    0.4305   58.4929 H       1  ZINC000008416770    0.1300
     47 H47       -11.0174    1.1225   60.8371 H       1  ZINC000008416770    0.1300
     48 H48       -10.3852   -0.5554   63.3795 H       1  ZINC000008416770    0.0700
     49 H49        -8.6253   -0.4515   63.1339 H       1  ZINC000008416770    0.0700
     50 H50        -9.6512    0.9722   62.8354 H       1  ZINC000008416770    0.0700
     51 H51        -8.5595   -2.2893   61.5523 H       1  ZINC000008416770    0.1300
     52 H52        -8.8468   -2.9938   59.2116 H       1  ZINC000008416770    0.1300
     53 H53        -7.0881    2.8829   53.4499 H       1  ZINC000008416770    0.1400
     54 H54        -4.7048    3.2028   52.9478 H       1  ZINC000008416770    0.1400
@<TRIPOS>BOND
     1     1     2    1
     2     1    31    1
     3     1    32    1
     4     1    33    1
     5     2     3    1
     6     2    34    1
     7     2    35    1
     8     3     4    1
     9     4     5    2
    10     4     6    1
    11     6    30   ar
    12     6     7   ar
    13     7     8   ar
    14     7    36    1
    15     8     9   ar
    16     8    37    1
    17     9    10    1
    18     9    29   ar
    19    10    11   am
    20    10    38    1
    21    11    12    2
    22    11    13    1
    23    13    14    1
    24    13    39    1
    25    13    40    1
    26    14    15    1
    27    14    41    1
    28    14    42    1
    29    15    16    2
    30    15    17    1
    31    17    18    1
    32    18    19    1
    33    18    43    1
    34    18    44    1
    35    19    20    2
    36    19    21   am
    37    21    22    1
    38    21    45    1
    39    22    28   ar
    40    22    23   ar
    41    23    24   ar
    42    23    46    1
    43    24    25   ar
    44    24    47    1
    45    25    26    1
    46    25    27   ar
    47    26    48    1
    48    26    49    1
    49    26    50    1
    50    27    28   ar
    51    27    51    1
    52    28    52    1
    53    29    30   ar
    54    29    53    1
    55    30    54    1
@<TRIPOS>SUBSTRUCTURE
     1 ZINC000008416770        1 TEMP              0 ****  ****    0 ROOT


##########                                Name:    ZINC000671418508
##########                DOCK_Rotatable_Bonds:                   9
##########                         Heavy_Atoms:                  28
##########                    Molecular_Weight:             405.884
##########                DOCK_Rotatable_Bonds:                   9
##########                       Formal_Charge:         -1.3411e-07
##########                     HBond_Acceptors:                   9
##########                        HBond_Donors:                   2
##########                         Heavy_Atoms:                  28
##########                          Grid_Score:          -38.861996
##########                     Grid_vdw_energy:          -39.031422
##########                      Grid_es_energy:            0.169424
##########           Internal_energy_repulsive:           20.661654

@<TRIPOS>MOLECULE
ZINC000671418508
 52 54 1 0 0
SMALL
USER_CHARGES


@<TRIPOS>ATOM
      1 C1         -8.5164    2.2058   57.0544 C.3     1  ZINC000671418508    0.1000
      2 N2         -8.2052    2.1340   55.6246 N.pl3   1  ZINC000671418508   -0.3700
      3 C3         -8.6894    1.2262   54.7514 C.2     1  ZINC000671418508    0.0800
      4 C4         -8.1624    1.5013   53.5358 C.2     1  ZINC000671418508   -0.2700
      5 C5         -8.4287    0.7419   52.2615 C.3     1  ZINC000671418508    0.2000
      6 N6         -9.7222    0.0612   52.3600 N.am    1  ZINC000671418508   -0.6900
      7 C7         -9.7869   -1.2810   52.2557 C.2     1  ZINC000671418508    0.5100
      8 O8         -8.7740   -1.9254   52.0789 O.2     1  ZINC000671418508   -0.5100
      9 C9        -11.1062   -1.9756   52.3580 C.2     1  ZINC000671418508    0.5100
     10 O10       -11.6548   -2.3866   51.3567 O.2     1  ZINC000671418508   -0.5200
     11 N11       -11.6868   -2.1455   53.5625 N.am    1  ZINC000671418508   -0.5800
     12 C12       -12.9819   -2.8316   53.6862 C.3     1  ZINC000671418508    0.0800
     13 C13       -12.8520   -3.9285   54.7483 C.3     1  ZINC000671418508    0.0400
     14 N14       -12.3385   -3.3418   55.9933 N.3     1  ZINC000671418508   -0.5200
     15 C15       -12.3614   -4.3230   57.0863 C.3     1  ZINC000671418508    0.1300
     16 H16       -11.9493   -5.2687   56.7343 H       1  ZINC000671418508    0.0600
     17 C17       -13.8037   -4.5364   57.5500 C.3     1  ZINC000671418508    0.0900
     18 O18       -14.2234   -5.8588   57.2078 O.3     1  ZINC000671418508   -0.5500
     19 C19       -11.5340   -3.8120   58.2375 C.ar    1  ZINC000671418508   -0.0800
     20 C20       -10.3362   -4.4256   58.5534 C.ar    1  ZINC000671418508   -0.0600
     21 C21        -9.5769   -3.9574   59.6093 C.ar    1  ZINC000671418508   -0.1200
     22 C22       -10.0159   -2.8743   60.3499 C.ar    1  ZINC000671418508   -0.0300
     23 Cl23       -9.0626   -2.2853   61.6757 Cl      1  ZINC000671418508   -0.0700
     24 C24       -11.2147   -2.2606   60.0332 C.ar    1  ZINC000671418508   -0.1200
     25 C25       -11.9703   -2.7263   58.9737 C.ar    1  ZINC000671418508   -0.1100
     26 C26       -10.9886   -2.7931   55.8066 C.3     1  ZINC000671418508    0.0400
     27 C27       -11.0392   -1.6551   54.7886 C.3     1  ZINC000671418508    0.1100
     28 C28        -7.3277    2.6154   53.6707 C.2     1  ZINC000671418508    0.0700
     29 N29        -7.3573    2.9992   54.9213 N.2     1  ZINC000671418508   -0.2900
     30 H30        -9.3907    2.8392   57.2046 H       1  ZINC000671418508    0.0800
     31 H31        -8.7240    1.2044   57.4318 H       1  ZINC000671418508    0.0900
     32 H32        -7.6660    2.6271   57.5906 H       1  ZINC000671418508    0.0900
     33 H33        -9.3744    0.4235   54.9816 H       1  ZINC000671418508    0.1800
     34 H34        -8.4467    1.4366   51.4217 H       1  ZINC000671418508    0.0800
     35 H35        -7.6410    0.0047   52.1066 H       1  ZINC000671418508    0.0800
     36 H36       -10.5321    0.5764   52.5001 H       1  ZINC000671418508    0.4100
     37 H37       -13.7472   -2.1171   53.9893 H       1  ZINC000671418508    0.0800
     38 H38       -13.2523   -3.2784   52.7295 H       1  ZINC000671418508    0.1400
     39 H39       -13.8296   -4.3740   54.9323 H       1  ZINC000671418508    0.0900
     40 H40       -12.1625   -4.6959   54.3963 H       1  ZINC000671418508    0.0400
     41 H41       -13.8611   -4.4052   58.6306 H       1  ZINC000671418508    0.0500
     42 H42       -14.4538   -3.8109   57.0608 H       1  ZINC000671418508    0.0500
     43 H43       -14.4569   -5.9685   56.2758 H       1  ZINC000671418508    0.3800
     44 H44        -9.9937   -5.2712   57.9755 H       1  ZINC000671418508    0.1400
     45 H45        -8.6414   -4.4370   59.8562 H       1  ZINC000671418508    0.1300
     46 H46       -11.5581   -1.4154   60.6112 H       1  ZINC000671418508    0.1300
     47 H47       -12.9060   -2.2471   58.7261 H       1  ZINC000671418508    0.1300
     48 H48       -10.6148   -2.4152   56.7583 H       1  ZINC000671418508    0.0900
     49 H49       -10.3252   -3.5762   55.4399 H       1  ZINC000671418508    0.0400
     50 H50       -10.0265   -1.3216   54.5615 H       1  ZINC000671418508    0.1000
     51 H51       -11.6182   -0.8257   55.1948 H       1  ZINC000671418508    0.0800
     52 H52        -6.7606    3.0815   52.8786 H       1  ZINC000671418508    0.1900
@<TRIPOS>BOND
     1     1     2    1
     2     1    30    1
     3     1    31    1
     4     1    32    1
     5     2    29    1
     6     2     3    1
     7     3     4    2
     8     3    33    1
     9     4     5    1
    10     4    28    1
    11     5     6    1
    12     5    34    1
    13     5    35    1
    14     6     7   am
    15     6    36    1
    16     7     8    2
    17     7     9    1
    18     9    10    2
    19     9    11   am
    20    11    27    1
    21    11    12    1
    22    12    13    1
    23    12    37    1
    24    12    38    1
    25    13    14    1
    26    13    39    1
    27    13    40    1
    28    14    15    1
    29    14    26    1
    30    15    16    1
    31    15    17    1
    32    15    19    1
    33    17    18    1
    34    17    41    1
    35    17    42    1
    36    18    43    1
    37    19    25   ar
    38    19    20   ar
    39    20    21   ar
    40    20    44    1
    41    21    22   ar
    42    21    45    1
    43    22    23    1
    44    22    24   ar
    45    24    25   ar
    46    24    46    1
    47    25    47    1
    48    26    27    1
    49    26    48    1
    50    26    49    1
    51    27    50    1
    52    27    51    1
    53    28    29    2
    54    28    52    1
@<TRIPOS>SUBSTRUCTURE
     1 ZINC000671418508        1 TEMP              0 ****  ****    0 ROOT


##########                                Name:    ZINC000190927708
##########                DOCK_Rotatable_Bonds:                  10
##########                         Heavy_Atoms:                  26
##########                    Molecular_Weight:             358.437
##########                DOCK_Rotatable_Bonds:                  10
##########                       Formal_Charge:           0.0499998
##########                     HBond_Acceptors:                   6
##########                        HBond_Donors:                   1
##########                         Heavy_Atoms:                  26
##########                          Grid_Score:          -38.851540
##########                     Grid_vdw_energy:          -36.257389
##########                      Grid_es_energy:           -2.594151
##########           Internal_energy_repulsive:           22.577375

@<TRIPOS>MOLECULE
ZINC000190927708
 52 53 1 0 0
SMALL
USER_CHARGES


@<TRIPOS>ATOM
      1 C1        -14.3408   -5.2651   57.1270 C.3     1  ZINC000190927708   -0.1500
      2 C2        -14.0638   -4.0429   56.2492 C.3     1  ZINC000190927708   -0.1500
      3 C3        -12.6652   -4.1592   55.6398 C.3     1  ZINC000190927708    0.1000
      4 N4        -11.9786   -2.8693   55.7436 N.am    1  ZINC000190927708   -0.5900
      5 C5        -11.3229   -2.5440   56.8754 C.2     1  ZINC000190927708    0.5300
      6 O6        -10.7532   -1.4768   56.9607 O.2     1  ZINC000190927708   -0.5300
      7 C7        -11.2976   -3.5064   58.0346 C.3     1  ZINC000190927708   -0.0800
      8 C8        -10.6560   -2.8420   59.2253 C.2     1  ZINC000190927708   -0.1700
      9 C9        -11.3226   -1.8713   59.8978 C.2     1  ZINC000190927708    0.0000
     10 C10       -10.6716   -1.2460   61.0505 C.ar    1  ZINC000190927708   -0.1300
     11 C11       -11.3093   -0.2405   61.7840 C.ar    1  ZINC000190927708   -0.0500
     12 C12       -10.6749    0.3223   62.8553 C.ar    1  ZINC000190927708   -0.1500
     13 C13        -9.4031   -0.0950   63.2222 C.ar    1  ZINC000190927708   -0.0600
     14 C14        -8.7554   -1.0841   62.5135 C.ar    1  ZINC000190927708   -0.1600
     15 C15        -9.3815   -1.6719   61.4197 C.ar    1  ZINC000190927708    0.1900
     16 N16        -8.7573   -2.6636   60.6932 N.am    1  ZINC000190927708   -0.6300
     17 C17        -9.3658   -3.2363   59.6398 C.2     1  ZINC000190927708    0.5500
     18 O18        -8.7840   -4.1101   59.0205 O.2     1  ZINC000190927708   -0.5300
     19 C19       -12.0046   -1.9328   54.6172 C.3     1  ZINC000190927708    0.1500
     20 H20       -11.8100   -0.9233   54.9794 H       1  ZINC000190927708    0.1400
     21 C21       -13.3796   -1.9783   53.9478 C.3     1  ZINC000190927708   -0.1300
     22 C22       -13.5406   -0.7648   53.0301 C.3     1  ZINC000190927708   -0.1500
     23 C23       -10.9459   -2.3204   53.6172 C.2     1  ZINC000190927708    0.4500
     24 O24       -10.8532   -3.4676   53.2496 O.2     1  ZINC000190927708   -0.5000
     25 O25       -10.1060   -1.3911   53.1349 O.3     1  ZINC000190927708   -0.3500
     26 C26        -9.2772   -1.7739   52.0058 C.3     1  ZINC000190927708    0.0600
     27 C27        -8.2428   -0.6790   51.7378 C.3     1  ZINC000190927708   -0.1500
     28 H28       -13.5998   -5.3150   57.9248 H       1  ZINC000190927708    0.0600
     29 H29       -15.3372   -5.1822   57.5611 H       1  ZINC000190927708    0.0600
     30 H30       -14.2829   -6.1688   56.5203 H       1  ZINC000190927708    0.0600
     31 H31       -14.8047   -3.9931   55.4514 H       1  ZINC000190927708    0.0800
     32 H32       -14.1217   -3.1392   56.8560 H       1  ZINC000190927708    0.0700
     33 H33       -12.0965   -4.9179   56.1775 H       1  ZINC000190927708    0.0900
     34 H34       -12.7485   -4.4430   54.5907 H       1  ZINC000190927708    0.0900
     35 H35       -12.3171   -3.7982   58.2870 H       1  ZINC000190927708    0.1100
     36 H36       -10.7241   -4.3916   57.7595 H       1  ZINC000190927708    0.1200
     37 H37       -12.3116   -1.5661   59.5897 H       1  ZINC000190927708    0.1400
     38 H38       -12.2989    0.0899   61.5047 H       1  ZINC000190927708    0.1400
     39 H39       -11.1675    1.0991   63.4215 H       1  ZINC000190927708    0.1300
     40 H40        -8.9156    0.3604   64.0717 H       1  ZINC000190927708    0.1300
     41 H41        -7.7657   -1.4017   62.8070 H       1  ZINC000190927708    0.1300
     42 H42        -7.8680   -2.9552   60.9482 H       1  ZINC000190927708    0.4200
     43 H43       -13.4677   -2.8923   53.3605 H       1  ZINC000190927708    0.0900
     44 H44       -14.1565   -1.9615   54.7122 H       1  ZINC000190927708    0.0800
     45 H45       -14.5202   -0.7972   52.5533 H       1  ZINC000190927708    0.0600
     46 H46       -13.4524    0.1491   53.6175 H       1  ZINC000190927708    0.0600
     47 H47       -12.7636   -0.7817   52.2658 H       1  ZINC000190927708    0.0600
     48 H48        -8.7656   -2.7097   52.2314 H       1  ZINC000190927708    0.0700
     49 H49        -9.9036   -1.9059   51.1235 H       1  ZINC000190927708    0.0700
     50 H50        -8.7544    0.2568   51.5122 H       1  ZINC000190927708    0.0700
     51 H51        -7.6164   -0.5470   52.6201 H       1  ZINC000190927708    0.0700
     52 H52        -7.6207   -0.9664   50.8901 H       1  ZINC000190927708    0.0800
@<TRIPOS>BOND
     1     1     2    1
     2     1    28    1
     3     1    29    1
     4     1    30    1
     5     2     3    1
     6     2    31    1
     7     2    32    1
     8     3     4    1
     9     3    33    1
    10     3    34    1
    11     4     5   am
    12     4    19    1
    13     5     6    2
    14     5     7    1
    15     7     8    1
    16     7    35    1
    17     7    36    1
    18     8    17    1
    19     8     9    2
    20     9    10    1
    21     9    37    1
    22    10    15   ar
    23    10    11   ar
    24    11    12   ar
    25    11    38    1
    26    12    13   ar
    27    12    39    1
    28    13    14   ar
    29    13    40    1
    30    14    15   ar
    31    14    41    1
    32    15    16    1
    33    16    17   am
    34    16    42    1
    35    17    18    2
    36    19    20    1
    37    19    21    1
    38    19    23    1
    39    21    22    1
    40    21    43    1
    41    21    44    1
    42    22    45    1
    43    22    46    1
    44    22    47    1
    45    23    24    2
    46    23    25    1
    47    25    26    1
    48    26    27    1
    49    26    48    1
    50    26    49    1
    51    27    50    1
    52    27    51    1
    53    27    52    1
@<TRIPOS>SUBSTRUCTURE
     1 ZINC000190927708        1 TEMP              0 ****  ****    0 ROOT


##########                                Name:    ZINC000482846390
##########                DOCK_Rotatable_Bonds:                   9
##########                         Heavy_Atoms:                  30
##########                    Molecular_Weight:             420.469
##########                DOCK_Rotatable_Bonds:                   9
##########                       Formal_Charge:          -0.0100011
##########                     HBond_Acceptors:                  11
##########                        HBond_Donors:                   2
##########                         Heavy_Atoms:                  30
##########                          Grid_Score:          -38.812622
##########                     Grid_vdw_energy:          -34.886406
##########                      Grid_es_energy:           -3.926216
##########           Internal_energy_repulsive:           25.132559

@<TRIPOS>MOLECULE
ZINC000482846390
 58 60 1 0 0
SMALL
USER_CHARGES


@<TRIPOS>ATOM
      1 C1         -8.2861    2.5867   66.4591 C.3     1  ZINC000482846390   -0.1000
      2 C2         -9.4528    2.6176   65.5058 C.2     1  ZINC000482846390    0.0900
      3 C3        -10.7209    2.2364   65.7842 C.2     1  ZINC000482846390   -0.2700
      4 C4        -11.4896    2.4230   64.6307 C.2     1  ZINC000482846390    0.0700
      5 C5        -12.9608    2.1276   64.4919 C.3     1  ZINC000482846390   -0.0500
      6 C6        -13.2063    1.3589   63.1920 C.3     1  ZINC000482846390    0.1500
      7 H7        -13.0966    2.0347   62.3439 H       1  ZINC000482846390    0.1000
      8 C8        -14.6221    0.7789   63.2021 C.3     1  ZINC000482846390   -0.1700
      9 N9        -12.2332    0.2697   63.0776 N.am    1  ZINC000482846390   -0.6800
     10 C10       -11.3710    0.2424   62.0420 C.2     1  ZINC000482846390    0.5100
     11 O11       -11.3997    1.1208   61.2053 O.2     1  ZINC000482846390   -0.5200
     12 C12       -10.3795   -0.8696   61.9244 C.2     1  ZINC000482846390    0.5100
     13 O13        -9.3379   -0.8221   62.5453 O.2     1  ZINC000482846390   -0.5100
     14 N14       -10.6421   -1.9253   61.1288 N.am    1  ZINC000482846390   -0.5900
     15 C15       -11.8967   -1.9934   60.3663 C.3     1  ZINC000482846390    0.0500
     16 C16       -11.5588   -2.1884   58.8831 C.3     1  ZINC000482846390    0.1000
     17 N17       -10.5956   -3.2918   58.7620 N.am    1  ZINC000482846390   -0.6000
     18 C18       -10.8579   -4.3470   57.9657 C.2     1  ZINC000482846390    0.5200
     19 O19       -10.0548   -5.2521   57.8737 O.2     1  ZINC000482846390   -0.5000
     20 C20       -12.1376   -4.4025   57.1958 C.2     1  ZINC000482846390    0.5200
     21 O21       -13.0507   -5.1000   57.5862 O.2     1  ZINC000482846390   -0.5000
     22 N22       -12.2776   -3.6781   56.0680 N.am    1  ZINC000482846390   -0.6000
     23 C23       -11.1823   -2.8299   55.5717 C.3     1  ZINC000482846390    0.0700
     24 C24       -10.9530   -3.1536   54.0911 C.3     1  ZINC000482846390    0.0500
     25 O25       -12.1958   -3.0599   53.3907 O.3     1  ZINC000482846390   -0.3700
     26 C26       -13.1864   -3.9929   53.8290 C.3     1  ZINC000482846390    0.0500
     27 C27       -13.5280   -3.7166   55.2932 C.3     1  ZINC000482846390    0.0700
     28 C28        -9.3410   -3.2237   59.5245 C.3     1  ZINC000482846390    0.0900
     29 C29        -9.6765   -3.0261   61.0033 C.3     1  ZINC000482846390    0.0900
     30 N30       -10.7110    2.8993   63.6933 N.2     1  ZINC000482846390   -0.2800
     31 N31        -9.4214    3.0359   64.2231 N.pl3   1  ZINC000482846390   -0.4700
     32 H32        -8.2293    3.5344   66.9945 H       1  ZINC000482846390    0.0800
     33 H33        -8.4213    1.7738   67.1726 H       1  ZINC000482846390    0.0900
     34 H34        -7.3639    2.4296   65.8997 H       1  ZINC000482846390    0.0700
     35 H35       -11.0766    1.8550   66.7300 H       1  ZINC000482846390    0.1500
     36 H36       -13.2920    1.5256   65.3381 H       1  ZINC000482846390    0.0900
     37 H37       -13.5190    3.0636   64.4714 H       1  ZINC000482846390    0.1100
     38 H38       -15.3461    1.5892   63.2872 H       1  ZINC000482846390    0.0700
     39 H39       -14.7969    0.2312   62.2760 H       1  ZINC000482846390    0.0700
     40 H40       -14.7318    0.1030   64.0501 H       1  ZINC000482846390    0.0600
     41 H41       -12.2094   -0.4317   63.7471 H       1  ZINC000482846390    0.4200
     42 H42       -12.4940   -2.8342   60.7190 H       1  ZINC000482846390    0.0800
     43 H43       -12.4542   -1.0657   60.4956 H       1  ZINC000482846390    0.1600
     44 H44       -12.4660   -2.4324   58.3302 H       1  ZINC000482846390    0.1100
     45 H45       -11.1194   -1.2739   58.4847 H       1  ZINC000482846390    0.0800
     46 H46       -11.4532   -1.7797   55.6802 H       1  ZINC000482846390    0.0900
     47 H47       -10.2736   -3.0354   56.1375 H       1  ZINC000482846390    0.0900
     48 H48       -10.2427   -2.4429   53.6687 H       1  ZINC000482846390    0.1100
     49 H49       -10.5572   -4.1648   53.9964 H       1  ZINC000482846390    0.0600
     50 H50       -14.0827   -3.8860   53.2181 H       1  ZINC000482846390    0.1100
     51 H51       -12.7987   -5.0072   53.7335 H       1  ZINC000482846390    0.0600
     52 H52       -14.1741   -4.5071   55.6750 H       1  ZINC000482846390    0.1100
     53 H53       -14.0350   -2.7552   55.3767 H       1  ZINC000482846390    0.0800
     54 H54        -8.7836   -4.1514   59.3951 H       1  ZINC000482846390    0.0900
     55 H55        -8.7438   -2.3829   59.1716 H       1  ZINC000482846390    0.0900
     56 H56        -8.7685   -2.7821   61.5550 H       1  ZINC000482846390    0.1100
     57 H57       -10.1167   -3.9392   61.4039 H       1  ZINC000482846390    0.0800
     58 H58        -8.6421    3.3670   63.7497 H       1  ZINC000482846390    0.4400
@<TRIPOS>BOND
     1     1     2    1
     2     1    32    1
     3     1    33    1
     4     1    34    1
     5     2    31    1
     6     2     3    2
     7     3     4    1
     8     3    35    1
     9     4     5    1
    10     4    30    2
    11     5     6    1
    12     5    36    1
    13     5    37    1
    14     6     7    1
    15     6     8    1
    16     6     9    1
    17     8    38    1
    18     8    39    1
    19     8    40    1
    20     9    10   am
    21     9    41    1
    22    10    11    2
    23    10    12    1
    24    12    13    2
    25    12    14   am
    26    14    29    1
    27    14    15    1
    28    15    16    1
    29    15    42    1
    30    15    43    1
    31    16    17    1
    32    16    44    1
    33    16    45    1
    34    17    18   am
    35    17    28    1
    36    18    19    2
    37    18    20    1
    38    20    21    2
    39    20    22   am
    40    22    27    1
    41    22    23    1
    42    23    24    1
    43    23    46    1
    44    23    47    1
    45    24    25    1
    46    24    48    1
    47    24    49    1
    48    25    26    1
    49    26    27    1
    50    26    50    1
    51    26    51    1
    52    27    52    1
    53    27    53    1
    54    28    29    1
    55    28    54    1
    56    28    55    1
    57    29    56    1
    58    29    57    1
    59    30    31    1
    60    31    58    1
@<TRIPOS>SUBSTRUCTURE
     1 ZINC000482846390        1 TEMP              0 ****  ****    0 ROOT


##########                                Name:    ZINC000269287897
##########                DOCK_Rotatable_Bonds:                   8
##########                         Heavy_Atoms:                  23
##########                    Molecular_Weight:             385.301
##########                DOCK_Rotatable_Bonds:                   8
##########                       Formal_Charge:           0.0300002
##########                     HBond_Acceptors:                   5
##########                        HBond_Donors:                   1
##########                         Heavy_Atoms:                  23
##########                          Grid_Score:          -38.792202
##########                     Grid_vdw_energy:          -37.646702
##########                      Grid_es_energy:           -1.145501
##########           Internal_energy_repulsive:            8.237125

@<TRIPOS>MOLECULE
ZINC000269287897
 48 49 1 0 0
SMALL
USER_CHARGES


@<TRIPOS>ATOM
      1 C1         -7.1900   -0.9076   51.2719 C.3     1  ZINC000269287897    0.0300
      2 O2         -8.3985   -1.6487   51.4516 O.3     1  ZINC000269287897   -0.3800
      3 C3         -9.3682   -0.9902   52.2688 C.3     1  ZINC000269287897    0.0600
      4 C4        -10.6539   -1.8189   52.3028 C.3     1  ZINC000269287897    0.0600
      5 O5        -10.4053   -3.0567   52.9722 O.3     1  ZINC000269287897   -0.3800
      6 C6        -11.5830   -3.8219   53.2356 C.3     1  ZINC000269287897    0.0700
      7 C7        -12.2825   -3.2697   54.4793 C.3     1  ZINC000269287897   -0.1000
      8 H8        -12.7870   -2.3296   54.2562 H       1  ZINC000269287897    0.1000
      9 C9        -13.2749   -4.3080   55.0663 C.3     1  ZINC000269287897   -0.1200
     10 C10       -13.3369   -3.9213   56.5590 C.3     1  ZINC000269287897    0.1000
     11 N11       -12.1095   -3.1730   56.8674 N.am    1  ZINC000269287897   -0.6300
     12 C12       -11.7929   -2.6427   58.0654 C.2     1  ZINC000269287897    0.7300
     13 O13       -12.5540   -2.7669   59.0055 O.2     1  ZINC000269287897   -0.5600
     14 N14       -10.6328   -1.9749   58.2213 N.am    1  ZINC000269287897   -0.6900
     15 C15       -10.3039   -1.4241   59.4655 C.ar    1  ZINC000269287897    0.1800
     16 C16       -10.7606   -0.1591   59.8089 C.ar    1  ZINC000269287897   -0.0600
     17 C17       -11.6115    0.6237   58.8423 C.3     1  ZINC000269287897   -0.1000
     18 C18       -10.4348    0.3816   61.0378 C.ar    1  ZINC000269287897   -0.0900
     19 C19        -9.6547   -0.3356   61.9257 C.ar    1  ZINC000269287897   -0.0800
     20 C20        -9.3015    0.2576   63.2652 C.3     1  ZINC000269287897   -0.1100
     21 C21        -9.1981   -1.5966   61.5875 C.ar    1  ZINC000269287897   -0.0900
     22 C22        -9.5243   -2.1451   60.3620 C.ar    1  ZINC000269287897   -0.1000
     23 Br23       -8.9002   -3.8694   59.9003 Br      1  ZINC000269287897   -0.0500
     24 C24       -11.2816   -3.0988   55.6493 C.3     1  ZINC000269287897    0.1400
     25 H25        -7.4163    0.0469   50.7967 H       1  ZINC000269287897    0.0400
     26 H26        -6.7255   -0.7294   52.2418 H       1  ZINC000269287897    0.0400
     27 H27        -6.5064   -1.4749   50.6404 H       1  ZINC000269287897    0.0900
     28 H28        -8.9780   -0.8834   53.2809 H       1  ZINC000269287897    0.0600
     29 H29        -9.5822   -0.0044   51.8559 H       1  ZINC000269287897    0.0600
     30 H30       -11.4281   -1.2668   52.8356 H       1  ZINC000269287897    0.0700
     31 H31       -10.9853   -2.0173   51.2836 H       1  ZINC000269287897    0.0600
     32 H32       -12.2568   -3.7575   52.3812 H       1  ZINC000269287897    0.0600
     33 H33       -11.3094   -4.8633   53.4049 H       1  ZINC000269287897    0.0500
     34 H34       -14.2558   -4.2095   54.6013 H       1  ZINC000269287897    0.0900
     35 H35       -12.8898   -5.3205   54.9458 H       1  ZINC000269287897    0.0800
     36 H36       -14.2094   -3.2946   56.7437 H       1  ZINC000269287897    0.0700
     37 H37       -13.3870   -4.8204   57.1731 H       1  ZINC000269287897    0.0700
     38 H38       -10.0256   -1.8758   57.4713 H       1  ZINC000269287897    0.4100
     39 H39       -12.6626    0.5064   59.1060 H       1  ZINC000269287897    0.0900
     40 H40       -11.3401    1.6782   58.8909 H       1  ZINC000269287897    0.0600
     41 H41       -11.4472    0.2524   57.8307 H       1  ZINC000269287897    0.0600
     42 H42       -10.7897    1.3660   61.3051 H       1  ZINC000269287897    0.1300
     43 H43       -10.0628   -0.0157   63.9958 H       1  ZINC000269287897    0.0700
     44 H44        -8.3336   -0.1257   63.5885 H       1  ZINC000269287897    0.0700
     45 H45        -9.2524    1.3431   63.1803 H       1  ZINC000269287897    0.0700
     46 H46        -8.5888   -2.1544   62.2832 H       1  ZINC000269287897    0.1400
     47 H47       -10.5472   -3.9042   55.6401 H       1  ZINC000269287897    0.0700
     48 H48       -10.7849   -2.1306   55.5866 H       1  ZINC000269287897    0.0900
@<TRIPOS>BOND
     1     1     2    1
     2     1    25    1
     3     1    26    1
     4     1    27    1
     5     2     3    1
     6     3     4    1
     7     3    28    1
     8     3    29    1
     9     4     5    1
    10     4    30    1
    11     4    31    1
    12     5     6    1
    13     6     7    1
    14     6    32    1
    15     6    33    1
    16     7     8    1
    17     7    24    1
    18     7     9    1
    19     9    10    1
    20     9    34    1
    21     9    35    1
    22    10    11    1
    23    10    36    1
    24    10    37    1
    25    11    12   am
    26    11    24    1
    27    12    13    2
    28    12    14   am
    29    14    15    1
    30    14    38    1
    31    15    22   ar
    32    15    16   ar
    33    16    17    1
    34    16    18   ar
    35    17    39    1
    36    17    40    1
    37    17    41    1
    38    18    19   ar
    39    18    42    1
    40    19    20    1
    41    19    21   ar
    42    20    43    1
    43    20    44    1
    44    20    45    1
    45    21    22   ar
    46    21    46    1
    47    22    23    1
    48    24    47    1
    49    24    48    1
@<TRIPOS>SUBSTRUCTURE
     1 ZINC000269287897        1 TEMP              0 ****  ****    0 ROOT


##########                                Name:    ZINC000479580180
##########                DOCK_Rotatable_Bonds:                   5
##########                         Heavy_Atoms:                  30
##########                    Molecular_Weight:             404.444
##########                DOCK_Rotatable_Bonds:                   5
##########                       Formal_Charge:           0.0299995
##########                     HBond_Acceptors:                   7
##########                        HBond_Donors:                   1
##########                         Heavy_Atoms:                  30
##########                          Grid_Score:          -38.707302
##########                     Grid_vdw_energy:          -39.187714
##########                      Grid_es_energy:            0.480412
##########           Internal_energy_repulsive:           14.815427

@<TRIPOS>MOLECULE
ZINC000479580180
 51 55 1 0 0
SMALL
USER_CHARGES


@<TRIPOS>ATOM
      1 O1        -14.9632   -4.3849   54.9126 O.2     1  ZINC000479580180   -0.5200
      2 C2        -14.3369   -3.5008   55.4577 C.2     1  ZINC000479580180    0.5200
      3 C3        -14.2326   -3.4679   56.9608 C.3     1  ZINC000479580180   -0.0700
      4 C4        -12.8634   -3.9382   57.3797 C.2     1  ZINC000479580180   -0.1600
      5 C5        -12.2067   -5.0122   56.9213 C.2     1  ZINC000479580180    0.0300
      6 O6        -11.0099   -5.1166   57.5259 O.3     1  ZINC000479580180   -0.1900
      7 C7        -10.8284   -4.1143   58.4089 C.ar    1  ZINC000479580180    0.0800
      8 C8         -9.7916   -3.7735   59.2679 C.ar    1  ZINC000479580180   -0.1400
      9 C9         -9.9052   -2.6561   60.0713 C.ar    1  ZINC000479580180    0.1300
     10 F10        -8.8950   -2.3265   60.9057 F       1  ZINC000479580180   -0.1300
     11 C11       -11.0479   -1.8676   60.0296 C.ar    1  ZINC000479580180   -0.1600
     12 C12       -12.0791   -2.1877   59.1904 C.ar    1  ZINC000479580180   -0.0400
     13 C13       -11.9787   -3.3081   58.3675 C.ar    1  ZINC000479580180   -0.1200
     14 N14       -13.7296   -2.5510   54.7192 N.am    1  ZINC000479580180   -0.6200
     15 C15       -12.9574   -1.4806   55.3646 C.3     1  ZINC000479580180    0.1100
     16 C16       -11.5537   -1.4472   54.7521 C.3     1  ZINC000479580180   -0.1300
     17 C17       -11.6678   -1.3110   53.2320 C.3     1  ZINC000479580180   -0.0100
     18 C18       -10.2883   -1.2435   52.6291 C.2     1  ZINC000479580180    0.3000
     19 N19        -9.5464   -0.1720   52.5335 N.2     1  ZINC000479580180   -0.5300
     20 C20        -8.3824   -0.4776   51.9445 C.2     1  ZINC000479580180    0.2700
     21 C21        -7.2798    0.4747   51.6616 C.ar    1  ZINC000479580180   -0.0200
     22 C22        -7.3691    1.7960   52.0945 C.ar    1  ZINC000479580180   -0.0800
     23 C23        -6.3405    2.6773   51.8290 C.ar    1  ZINC000479580180   -0.1300
     24 C24        -5.2230    2.2510   51.1343 C.ar    1  ZINC000479580180   -0.1000
     25 C25        -5.1294    0.9403   50.7023 C.ar    1  ZINC000479580180   -0.1200
     26 C26        -6.1494    0.0491   50.9673 C.ar    1  ZINC000479580180   -0.0800
     27 N27        -8.3786   -1.7612   51.6591 N.2     1  ZINC000479580180   -0.3000
     28 N28        -9.6074   -2.2770   52.1021 N.pl3   1  ZINC000479580180   -0.4800
     29 C29       -12.4138   -2.5207   52.6644 C.3     1  ZINC000479580180   -0.1400
     30 C30       -13.8222   -2.5697   53.2530 C.3     1  ZINC000479580180    0.1200
     31 H31       -14.3903   -2.4487   57.3138 H       1  ZINC000479580180    0.1100
     32 H32       -14.9895   -4.1230   57.3920 H       1  ZINC000479580180    0.1100
     33 H33       -12.5837   -5.6952   56.1744 H       1  ZINC000479580180    0.2100
     34 H34        -8.8993   -4.3808   59.3075 H       1  ZINC000479580180    0.1500
     35 H35       -11.1225   -0.9966   60.6637 H       1  ZINC000479580180    0.1400
     36 H36       -12.9659   -1.5720   59.1618 H       1  ZINC000479580180    0.1300
     37 H37       -13.4512   -0.5230   55.1991 H       1  ZINC000479580180    0.0800
     38 H38       -12.8848   -1.6765   56.4343 H       1  ZINC000479580180    0.0900
     39 H39       -11.0019   -0.5969   55.1531 H       1  ZINC000479580180    0.0900
     40 H40       -11.0281   -2.3704   54.9963 H       1  ZINC000479580180    0.0700
     41 H41       -12.2152   -0.4002   52.9891 H       1  ZINC000479580180    0.1200
     42 H42        -8.2415    2.1301   52.6363 H       1  ZINC000479580180    0.1400
     43 H43        -6.4085    3.7018   52.1640 H       1  ZINC000479580180    0.1300
     44 H44        -4.4208    2.9441   50.9282 H       1  ZINC000479580180    0.1300
     45 H45        -4.2547    0.6128   50.1600 H       1  ZINC000479580180    0.1300
     46 H46        -6.0751   -0.9741   50.6297 H       1  ZINC000479580180    0.1300
     47 H47        -9.9085   -3.1967   52.0357 H       1  ZINC000479580180    0.4400
     48 H48       -12.4742   -2.4345   51.5795 H       1  ZINC000479580180    0.0900
     49 H49       -11.8802   -3.4338   52.9281 H       1  ZINC000479580180    0.0700
     50 H50       -14.3221   -3.4825   52.9287 H       1  ZINC000479580180    0.1000
     51 H51       -14.3890   -1.7013   52.9173 H       1  ZINC000479580180    0.0800
@<TRIPOS>BOND
     1     1     2    2
     2     2     3    1
     3     2    14   am
     4     3     4    1
     5     3    31    1
     6     3    32    1
     7     4    13    1
     8     4     5    2
     9     5     6    1
    10     5    33    1
    11     6     7    1
    12     7    13   ar
    13     7     8   ar
    14     8     9   ar
    15     8    34    1
    16     9    10    1
    17     9    11   ar
    18    11    12   ar
    19    11    35    1
    20    12    13   ar
    21    12    36    1
    22    14    30    1
    23    14    15    1
    24    15    16    1
    25    15    37    1
    26    15    38    1
    27    16    17    1
    28    16    39    1
    29    16    40    1
    30    17    18    1
    31    17    29    1
    32    17    41    1
    33    18    28    1
    34    18    19    2
    35    19    20    1
    36    20    21    1
    37    20    27    2
    38    21    26   ar
    39    21    22   ar
    40    22    23   ar
    41    22    42    1
    42    23    24   ar
    43    23    43    1
    44    24    25   ar
    45    24    44    1
    46    25    26   ar
    47    25    45    1
    48    26    46    1
    49    27    28    1
    50    28    47    1
    51    29    30    1
    52    29    48    1
    53    29    49    1
    54    30    50    1
    55    30    51    1
@<TRIPOS>SUBSTRUCTURE
     1 ZINC000479580180        1 TEMP              0 ****  ****    0 ROOT


##########                                Name:     oleObject17.pdb
##########                DOCK_Rotatable_Bonds:                   8
##########                         Heavy_Atoms:                  29
##########                    Molecular_Weight:             435.393
##########                DOCK_Rotatable_Bonds:                   8
##########                       Formal_Charge:         0.000400059
##########                     HBond_Acceptors:                   6
##########                        HBond_Donors:                   0
##########                         Heavy_Atoms:                  29
##########                          Grid_Score:          -38.655495
##########                     Grid_vdw_energy:          -37.787289
##########                      Grid_es_energy:           -0.868205
##########           Internal_energy_repulsive:           21.138783

@<TRIPOS>MOLECULE
oleObject17.pdb
 57 59 1 0 0
SMALL
NO_CHARGES


@<TRIPOS>ATOM
      1 C         -12.7624   -1.5077   53.7431 C.3     1  UNL         0.0391
      2 C         -13.0434   -0.8121   52.4094 C.ar    1  UNL        -0.0277
      3 C         -12.7743    0.5623   52.1886 C.ar    1  UNL        -0.0463
      4 C         -13.0913    1.1384   50.9426 C.ar    1  UNL        -0.0590
      5 C         -13.6650    0.3678   49.9209 C.ar    1  UNL        -0.0620
      6 C         -13.9152   -0.9946   50.1316 C.ar    1  UNL        -0.0619
      7 C         -13.6001   -1.5793   51.3671 C.ar    1  UNL        -0.0572
      8 C         -12.1424    1.4477   53.2571 C.3     1  UNL        -0.0394
      9 N         -11.6932   -2.5241   53.6433 N.am    1  UNL        -0.3003
     10 C         -11.4028   -3.3702   54.7134 C.2     1  UNL         0.2175
     11 O         -10.3436   -3.9735   54.7404 O.2     1  UNL        -0.2772
     12 C         -12.2548   -3.1858   55.9970 C.3     1  UNL         0.0384
     13 C         -11.6957   -2.0846   56.9331 C.3     1  UNL        -0.0289
     14 C         -10.3666   -2.5182   57.5815 C.3     1  UNL        -0.0010
     15 N         -10.5102   -3.7821   58.3368 N.4     1  UNL        -0.3010
     16 C         -11.1003   -4.8977   57.5602 C.3     1  UNL        -0.0010
     17 C         -12.4016   -4.4953   56.8193 C.3     1  UNL        -0.0289
     18 C          -9.2909   -4.1579   59.0886 C.3     1  UNL         0.0222
     19 C          -8.8920   -3.1324   60.1750 C.3     1  UNL         0.0661
     20 O         -10.0906   -2.5298   60.6915 O.3     1  UNL        -0.3432
     21 C         -10.0747   -1.4593   61.5651 C.ar    1  UNL         0.0937
     22 C          -8.9801   -1.2108   62.4212 C.ar    1  UNL        -0.0288
     23 C          -8.9979   -0.1069   63.2896 C.ar    1  UNL        -0.0408
     24 C         -10.1074    0.7525   63.3109 C.ar    1  UNL         0.0422
     25 C         -11.2015    0.5101   62.4657 C.ar    1  UNL        -0.0221
     26 C         -11.1862   -0.5928   61.5955 C.ar    1  UNL         0.0723
     27 CL        -12.5666   -0.8641   60.5484 Cl      1  UNL        -0.0814
     28 CL        -10.1265    2.1280   64.3937 Cl      1  UNL        -0.0843
     29 C         -10.9632   -2.5756   52.3634 C.3     1  UNL         0.0031
     30 H         -13.6635   -1.9944   54.1326 H       1  UNL         0.0520
     31 H         -12.4777   -0.7430   54.4767 H       1  UNL         0.0520
     32 H         -12.8935    2.1911   50.7620 H       1  UNL         0.0626
     33 H         -13.9084    0.8248   48.9658 H       1  UNL         0.0623
     34 H         -14.3540   -1.5960   49.3407 H       1  UNL         0.0623
     35 H         -13.8026   -2.6351   51.5206 H       1  UNL         0.0626
     36 H         -11.2009    1.0187   53.6215 H       1  UNL         0.0280
     37 H         -12.8133    1.5777   54.1138 H       1  UNL         0.0280
     38 H         -11.9114    2.4478   52.8701 H       1  UNL         0.0280
     39 H         -13.2602   -2.8874   55.6774 H       1  UNL         0.0402
     40 H         -12.4264   -1.8796   57.7262 H       1  UNL         0.0288
     41 H         -11.5536   -1.1413   56.3954 H       1  UNL         0.0288
     42 H         -10.0204   -1.7201   58.2507 H       1  UNL         0.0431
     43 H          -9.6188   -2.6377   56.7894 H       1  UNL         0.0431
     44 H         -11.3236   -5.7360   58.2323 H       1  UNL         0.0431
     45 H         -10.3740   -5.2613   56.8248 H       1  UNL         0.0431
     46 H         -13.1945   -4.3551   57.5654 H       1  UNL         0.0288
     47 H         -12.7289   -5.3163   56.1686 H       1  UNL         0.0288
     48 H          -8.4521   -4.2763   58.3908 H       1  UNL         0.0455
     49 H          -9.4506   -5.1309   59.5708 H       1  UNL         0.0455
     50 H          -8.2523   -2.3561   59.7396 H       1  UNL         0.0586
     51 H          -8.3434   -3.6337   60.9815 H       1  UNL         0.0586
     52 H          -8.1134   -1.8637   62.4244 H       1  UNL         0.0651
     53 H          -8.1522    0.0799   63.9455 H       1  UNL         0.0639
     54 H         -12.0598    1.1757   62.4836 H       1  UNL         0.0655
     55 H         -10.8746   -1.5687   51.9362 H       1  UNL         0.0433
     56 H         -11.4955   -3.2177   51.6514 H       1  UNL         0.0433
     57 H          -9.9512   -2.9690   52.5197 H       1  UNL         0.0433
@<TRIPOS>BOND
     1     1     2    1
     2     1     9    1
     3     1    30    1
     4     1    31    1
     5     2     3   ar
     6     2     7   ar
     7     3     4   ar
     8     3     8    1
     9     4     5   ar
    10     4    32    1
    11     5     6   ar
    12     5    33    1
    13     6     7   ar
    14     6    34    1
    15     7    35    1
    16     8    36    1
    17     8    37    1
    18     8    38    1
    19     9    10   am
    20     9    29    1
    21    10    11    2
    22    10    12    1
    23    12    13    1
    24    12    17    1
    25    12    39    1
    26    13    14    1
    27    13    40    1
    28    13    41    1
    29    14    15    1
    30    14    42    1
    31    14    43    1
    32    15    16    1
    33    15    18    1
    34    16    17    1
    35    16    44    1
    36    16    45    1
    37    17    46    1
    38    17    47    1
    39    18    19    1
    40    18    48    1
    41    18    49    1
    42    19    20    1
    43    19    50    1
    44    19    51    1
    45    20    21    1
    46    21    22   ar
    47    21    26   ar
    48    22    23   ar
    49    22    52    1
    50    23    24   ar
    51    23    53    1
    52    24    25   ar
    53    24    28    1
    54    25    26   ar
    55    25    54    1
    56    26    27    1
    57    29    55    1
    58    29    56    1
    59    29    57    1
@<TRIPOS>SUBSTRUCTURE
     1 UNL         1 TEMP              0 ****  ****    0 ROOT


##########                                Name:    ZINC001284642199
##########                DOCK_Rotatable_Bonds:                   8
##########                         Heavy_Atoms:                  25
##########                    Molecular_Weight:             346.516
##########                DOCK_Rotatable_Bonds:                   8
##########                       Formal_Charge:         -3.8743e-07
##########                     HBond_Acceptors:                   5
##########                        HBond_Donors:                   2
##########                         Heavy_Atoms:                  25
##########                          Grid_Score:          -38.541000
##########                     Grid_vdw_energy:          -38.015369
##########                      Grid_es_energy:           -0.525632
##########           Internal_energy_repulsive:           20.086672

@<TRIPOS>MOLECULE
ZINC001284642199
 59 60 1 0 0
SMALL
USER_CHARGES


@<TRIPOS>ATOM
      1 C1         -6.2493    1.0123   51.4319 C.3     1  ZINC001284642199   -0.1100
      2 C2         -7.5095    0.2363   51.7159 C.ar    1  ZINC001284642199   -0.1900
      3 C3         -7.5503   -1.1385   51.5444 C.ar    1  ZINC001284642199    0.1500
      4 N4         -8.6746   -1.7865   51.8041 N.ar    1  ZINC001284642199   -0.4900
      5 C5         -9.7454   -1.1407   52.2205 C.ar    1  ZINC001284642199    0.3100
      6 C6        -11.0057   -1.9168   52.5044 C.3     1  ZINC001284642199    0.1300
      7 N7        -11.0403   -2.2918   53.9242 N.3     1  ZINC001284642199   -0.6800
      8 C8        -12.3720   -2.7793   54.3076 C.3     1  ZINC001284642199    0.0500
      9 C9        -12.2835   -3.4982   55.6553 C.3     1  ZINC001284642199    0.1600
     10 H10       -11.5533   -4.3049   55.5894 H       1  ZINC001284642199    0.1000
     11 N11       -11.8688   -2.5474   56.6897 N.am    1  ZINC001284642199   -0.7200
     12 C12       -10.8835   -2.8740   57.5493 C.2     1  ZINC001284642199    0.5200
     13 O13       -10.3391   -3.9545   57.4655 O.2     1  ZINC001284642199   -0.5300
     14 C14       -10.4582   -1.8966   58.6146 C.3     1  ZINC001284642199   -0.1100
     15 H15        -9.7616   -1.1748   58.1881 H       1  ZINC001284642199    0.0900
     16 C16       -11.6877   -1.1621   59.1530 C.3     1  ZINC001284642199   -0.1000
     17 C17       -11.2559   -0.1698   60.2345 C.3     1  ZINC001284642199   -0.1100
     18 C18       -10.5725   -0.9251   61.3762 C.3     1  ZINC001284642199   -0.0900
     19 H19       -11.2691   -1.6469   61.8026 H       1  ZINC001284642199    0.0700
     20 C20       -10.1406    0.0673   62.4577 C.3     1  ZINC001284642199   -0.1500
     21 C21        -9.3431   -1.6596   60.8378 C.3     1  ZINC001284642199   -0.1100
     22 C22        -9.7748   -2.6519   59.7563 C.3     1  ZINC001284642199   -0.1100
     23 C23       -13.6529   -4.0781   56.0149 C.3     1  ZINC001284642199   -0.0800
     24 C24       -14.6741   -2.9441   56.1245 C.3     1  ZINC001284642199   -0.1400
     25 C25       -14.0938   -5.0579   54.9257 C.3     1  ZINC001284642199   -0.1400
     26 C26       -13.5602   -4.8121   57.3541 C.3     1  ZINC001284642199   -0.1300
     27 N27        -9.7450    0.1663   52.3900 N.ar    1  ZINC001284642199   -0.5100
     28 C28        -8.6556    0.8801   52.1551 C.ar    1  ZINC001284642199    0.1500
     29 H29        -6.2453    1.3298   50.3892 H       1  ZINC001284642199    0.0800
     30 H30        -6.2088    1.8887   52.0787 H       1  ZINC001284642199    0.0700
     31 H31        -5.3824    0.3797   51.6224 H       1  ZINC001284642199    0.0700
     32 H32        -6.6765   -1.6736   51.2032 H       1  ZINC001284642199    0.1700
     33 H33       -11.0241   -2.8170   51.8902 H       1  ZINC001284642199    0.1000
     34 H34       -11.8729   -1.2994   52.2704 H       1  ZINC001284642199    0.0600
     35 H35       -10.7554   -1.5204   54.5091 H       1  ZINC001284642199    0.3400
     36 H36       -12.7375   -3.4719   53.5495 H       1  ZINC001284642199    0.0900
     37 H37       -13.0577   -1.9360   54.3901 H       1  ZINC001284642199    0.0400
     38 H38       -12.3034   -1.6827   56.7560 H       1  ZINC001284642199    0.3900
     39 H39       -12.3843   -1.8839   59.5794 H       1  ZINC001284642199    0.0700
     40 H40       -12.1746   -0.6241   58.3397 H       1  ZINC001284642199    0.0700
     41 H41       -12.1318    0.3535   60.6181 H       1  ZINC001284642199    0.0700
     42 H42       -10.5593    0.5521   59.8082 H       1  ZINC001284642199    0.0600
     43 H43       -11.0166    0.5905   62.8413 H       1  ZINC001284642199    0.0500
     44 H44        -9.6538   -0.4708   63.2711 H       1  ZINC001284642199    0.0500
     45 H45        -9.4441    0.7890   62.0313 H       1  ZINC001284642199    0.0500
     46 H46        -8.6464   -0.9378   60.4114 H       1  ZINC001284642199    0.0600
     47 H47        -8.8561   -2.1976   61.6510 H       1  ZINC001284642199    0.0700
     48 H48       -10.4714   -3.3737   60.1827 H       1  ZINC001284642199    0.0700
     49 H49        -8.8990   -3.1751   59.3727 H       1  ZINC001284642199    0.0600
     50 H50       -14.7401   -2.4211   55.1704 H       1  ZINC001284642199    0.0600
     51 H51       -15.6497   -3.3571   56.3808 H       1  ZINC001284642199    0.0600
     52 H52       -14.3599   -2.2460   56.9005 H       1  ZINC001284642199    0.0500
     53 H53       -13.3664   -5.8659   54.8475 H       1  ZINC001284642199    0.0600
     54 H54       -15.0695   -5.4710   55.1818 H       1  ZINC001284642199    0.0600
     55 H55       -14.1599   -4.5350   53.9716 H       1  ZINC001284642199    0.0600
     56 H56       -13.2461   -4.1141   58.1300 H       1  ZINC001284642199    0.0500
     57 H57       -14.5358   -5.2252   57.6103 H       1  ZINC001284642199    0.0500
     58 H58       -12.8328   -5.6201   57.2760 H       1  ZINC001284642199    0.0600
     59 H59        -8.6609    1.9504   52.2997 H       1  ZINC001284642199    0.1700
@<TRIPOS>BOND
     1     1     2    1
     2     1    29    1
     3     1    30    1
     4     1    31    1
     5     2    28   ar
     6     2     3   ar
     7     3     4   ar
     8     3    32    1
     9     4     5   ar
    10     5     6    1
    11     5    27   ar
    12     6     7    1
    13     6    33    1
    14     6    34    1
    15     7     8    1
    16     7    35    1
    17     8     9    1
    18     8    36    1
    19     8    37    1
    20     9    10    1
    21     9    11    1
    22     9    23    1
    23    11    12   am
    24    11    38    1
    25    12    13    2
    26    12    14    1
    27    14    15    1
    28    14    22    1
    29    14    16    1
    30    16    17    1
    31    16    39    1
    32    16    40    1
    33    17    18    1
    34    17    41    1
    35    17    42    1
    36    18    19    1
    37    18    20    1
    38    18    21    1
    39    20    43    1
    40    20    44    1
    41    20    45    1
    42    21    22    1
    43    21    46    1
    44    21    47    1
    45    22    48    1
    46    22    49    1
    47    23    24    1
    48    23    25    1
    49    23    26    1
    50    24    50    1
    51    24    51    1
    52    24    52    1
    53    25    53    1
    54    25    54    1
    55    25    55    1
    56    26    56    1
    57    26    57    1
    58    26    58    1
    59    27    28   ar
    60    28    59    1
@<TRIPOS>SUBSTRUCTURE
     1 ZINC001284642199        1 TEMP              0 ****  ****    0 ROOT


##########                                Name:    ZINC000599797189
##########                DOCK_Rotatable_Bonds:                  13
##########                         Heavy_Atoms:                  23
##########                    Molecular_Weight:             329.313
##########                DOCK_Rotatable_Bonds:                  13
##########                       Formal_Charge:          0.00999949
##########                     HBond_Acceptors:                  11
##########                        HBond_Donors:                   3
##########                         Heavy_Atoms:                  23
##########                          Grid_Score:          -38.515457
##########                     Grid_vdw_energy:          -34.929588
##########                      Grid_es_energy:           -3.585868
##########           Internal_energy_repulsive:            9.645376

@<TRIPOS>MOLECULE
ZINC000599797189
 42 42 1 0 0
SMALL
USER_CHARGES


@<TRIPOS>ATOM
      1 C1         -9.4022    1.0600   64.9556 C.3     1  ZINC000599797189   -0.1500
      2 C2         -9.2453    0.5827   63.5104 C.3     1  ZINC000599797189    0.0600
      3 O3        -10.0553   -0.6043   63.3021 O.3     1  ZINC000599797189   -0.3600
      4 C4        -10.2884   -0.9676   62.0312 C.2     1  ZINC000599797189    0.4500
      5 O5        -11.4236   -1.0984   61.6389 O.2     1  ZINC000599797189   -0.4800
      6 C6         -9.1342   -1.2127   61.0937 C.3     1  ZINC000599797189    0.1500
      7 N7         -9.4615   -2.3233   60.1961 N.pl3   1  ZINC000599797189   -0.3800
      8 C8         -8.8203   -3.5008   60.1066 C.2     1  ZINC000599797189    0.2800
      9 N9         -9.4156   -4.2218   59.1910 N.2     1  ZINC000599797189   -0.5100
     10 C10       -10.4410   -3.5388   58.6736 C.2     1  ZINC000599797189    0.4700
     11 N11       -11.3018   -3.9976   57.6710 N.am    1  ZINC000599797189   -0.6400
     12 C12       -11.4591   -3.2833   56.5389 C.2     1  ZINC000599797189    0.7100
     13 O13       -10.8539   -2.2394   56.3897 O.2     1  ZINC000599797189   -0.5300
     14 N14       -12.2872   -3.7262   55.5722 N.am    1  ZINC000599797189   -0.7300
     15 C15       -12.4568   -2.9507   54.3409 C.3     1  ZINC000599797189    0.1100
     16 C16       -11.4036   -3.3811   53.3180 C.3     1  ZINC000599797189    0.1100
     17 H17       -10.4112   -3.2966   53.7607 H       1  ZINC000599797189    0.1200
     18 O18       -11.6397   -4.7370   52.9331 O.3     1  ZINC000599797189   -0.5400
     19 C19       -11.4909   -2.4787   52.0855 C.3     1  ZINC000599797189   -0.1500
     20 C20       -11.0052   -1.0967   52.4394 C.2     1  ZINC000599797189    0.4600
     21 O21       -11.7910   -0.2561   52.8079 O.2     1  ZINC000599797189   -0.4900
     22 O22        -9.6996   -0.7996   52.3452 O.3     1  ZINC000599797189   -0.3600
     23 C23        -9.2965    0.5352   52.7504 C.3     1  ZINC000599797189    0.0400
     24 N24       -10.5109   -2.3696   59.2640 N.2     1  ZINC000599797189   -0.3200
     25 H25        -8.7942    1.9510   65.1120 H       1  ZINC000599797189    0.0800
     26 H26       -10.4487    1.2956   65.1489 H       1  ZINC000599797189    0.0700
     27 H27        -9.0754    0.2732   65.6356 H       1  ZINC000599797189    0.0700
     28 H28        -9.5722    1.3694   62.8305 H       1  ZINC000599797189    0.0700
     29 H29        -8.1988    0.3470   63.3172 H       1  ZINC000599797189    0.0700
     30 H30        -8.9463   -0.3140   60.5063 H       1  ZINC000599797189    0.1500
     31 H31        -8.2440   -1.4623   61.6709 H       1  ZINC000599797189    0.1300
     32 H32        -7.9618   -3.8003   60.6894 H       1  ZINC000599797189    0.2300
     33 H33       -11.7856   -4.8299   57.7904 H       1  ZINC000599797189    0.4200
     34 H34       -12.7709   -4.5585   55.6917 H       1  ZINC000599797189    0.4000
     35 H35       -13.4523   -3.1280   53.9341 H       1  ZINC000599797189    0.0800
     36 H36       -12.3377   -1.8897   54.5604 H       1  ZINC000599797189    0.0800
     37 H37       -12.5592   -4.9253   52.7002 H       1  ZINC000599797189    0.3800
     38 H38       -10.8696   -2.8894   51.2897 H       1  ZINC000599797189    0.1200
     39 H39       -12.5258   -2.4245   51.7474 H       1  ZINC000599797189    0.1200
     40 H40        -9.8099    1.2728   52.1336 H       1  ZINC000599797189    0.0600
     41 H41        -9.5577    0.6917   53.7970 H       1  ZINC000599797189    0.0600
     42 H42        -8.2191    0.6431   52.6247 H       1  ZINC000599797189    0.1000
@<TRIPOS>BOND
     1     1     2    1
     2     1    25    1
     3     1    26    1
     4     1    27    1
     5     2     3    1
     6     2    28    1
     7     2    29    1
     8     3     4    1
     9     4     5    2
    10     4     6    1
    11     6     7    1
    12     6    30    1
    13     6    31    1
    14     7    24    1
    15     7     8    1
    16     8     9    2
    17     8    32    1
    18     9    10    1
    19    10    11    1
    20    10    24    2
    21    11    12   am
    22    11    33    1
    23    12    13    2
    24    12    14   am
    25    14    15    1
    26    14    34    1
    27    15    16    1
    28    15    35    1
    29    15    36    1
    30    16    17    1
    31    16    18    1
    32    16    19    1
    33    18    37    1
    34    19    20    1
    35    19    38    1
    36    19    39    1
    37    20    21    2
    38    20    22    1
    39    22    23    1
    40    23    40    1
    41    23    41    1
    42    23    42    1
@<TRIPOS>SUBSTRUCTURE
     1 ZINC000599797189        1 TEMP              0 ****  ****    0 ROOT


##########                                Name:    ZINC000265724350
##########                DOCK_Rotatable_Bonds:                   8
##########                         Heavy_Atoms:                  23
##########                    Molecular_Weight:              345.42
##########                DOCK_Rotatable_Bonds:                   8
##########                       Formal_Charge:          -0.0300002
##########                     HBond_Acceptors:                   9
##########                        HBond_Donors:                   2
##########                         Heavy_Atoms:                  23
##########                          Grid_Score:          -38.433479
##########                     Grid_vdw_energy:          -37.378990
##########                      Grid_es_energy:           -1.054487
##########           Internal_energy_repulsive:            5.916527

@<TRIPOS>MOLECULE
ZINC000265724350
 46 47 1 0 0
SMALL
USER_CHARGES


@<TRIPOS>ATOM
      1 C1         -4.4143    1.5442   51.2281 C.3     1  ZINC000265724350    0.0800
      2 N2         -5.6843    1.1300   51.8297 N.am    1  ZINC000265724350   -1.1100
      3 S3         -6.8483    0.4132   50.8951 S.o2    1  ZINC000265724350    2.7200
      4 O4         -7.2931    1.4036   49.9784 O.2     1  ZINC000265724350   -0.9300
      5 O5         -6.3197   -0.8413   50.4879 O.2     1  ZINC000265724350   -0.9300
      6 C6         -8.2166    0.0586   51.9472 C.2     1  ZINC000265724350   -0.5600
      7 C7         -8.8633    0.9540   52.7258 C.2     1  ZINC000265724350   -0.0900
      8 C8         -9.8829    0.2590   53.3949 C.2     1  ZINC000265724350   -0.1400
      9 C9         -9.8056   -1.0414   52.9855 C.2     1  ZINC000265724350   -0.0200
     10 C10       -10.6770   -2.1363   53.4246 C.2     1  ZINC000265724350    0.6000
     11 O11       -10.9043   -3.0700   52.6778 O.2     1  ZINC000265724350   -0.5000
     12 N12       -11.2261   -2.1086   54.6551 N.am    1  ZINC000265724350   -0.7100
     13 C13       -12.0951   -3.2032   55.0943 C.3     1  ZINC000265724350    0.1200
     14 C14       -12.1129   -3.2582   56.6232 C.3     1  ZINC000265724350   -0.1100
     15 H15       -12.4001   -2.2839   57.0186 H       1  ZINC000265724350    0.0800
     16 C16       -13.1211   -4.3128   57.0838 C.3     1  ZINC000265724350   -0.1400
     17 C17       -10.7194   -3.6263   57.1365 C.3     1  ZINC000265724350    0.0600
     18 N18       -10.4654   -2.9307   58.4051 N.3     1  ZINC000265724350   -0.5300
     19 C19       -10.0513   -1.5399   58.1698 C.3     1  ZINC000265724350    0.0100
     20 C20        -9.8554   -0.8367   59.5155 C.3     1  ZINC000265724350    0.0600
     21 O21        -8.8986   -1.5624   60.2921 O.3     1  ZINC000265724350   -0.3900
     22 C22        -9.2702   -2.9208   60.5410 C.3     1  ZINC000265724350    0.0600
     23 C23        -9.4602   -3.6451   59.2056 C.3     1  ZINC000265724350    0.0200
     24 O24        -8.7907   -1.1414   52.1023 O.3     1  ZINC000265724350   -0.1100
     25 H25        -3.7795    1.9929   51.9922 H       1  ZINC000265724350    0.0900
     26 H26        -3.9125    0.6745   50.8038 H       1  ZINC000265724350    0.0600
     27 H27        -4.6058    2.2733   50.4408 H       1  ZINC000265724350    0.0700
     28 H28        -5.8434    1.2758   52.7754 H       1  ZINC000265724350    0.4200
     29 H29        -8.6380    2.0063   52.8162 H       1  ZINC000265724350    0.1800
     30 H30       -10.5912    0.6726   54.0975 H       1  ZINC000265724350    0.1700
     31 H31       -11.0459   -1.3638   55.2499 H       1  ZINC000265724350    0.4100
     32 H32       -13.1067   -3.0346   54.7250 H       1  ZINC000265724350    0.0800
     33 H33       -11.7174   -4.1470   54.7011 H       1  ZINC000265724350    0.0700
     34 H34       -14.1139   -4.0505   56.7182 H       1  ZINC000265724350    0.0500
     35 H35       -12.8339   -5.2871   56.6885 H       1  ZINC000265724350    0.0600
     36 H36       -13.1338   -4.3520   58.1731 H       1  ZINC000265724350    0.0700
     37 H37       -10.6633   -4.7032   57.2951 H       1  ZINC000265724350    0.0800
     38 H38        -9.9712   -3.3277   56.4022 H       1  ZINC000265724350    0.0400
     39 H39        -9.1142   -1.5283   57.6132 H       1  ZINC000265724350    0.0400
     40 H40       -10.8215   -1.0227   57.5976 H       1  ZINC000265724350    0.0900
     41 H41        -9.4935    0.1776   59.3469 H       1  ZINC000265724350    0.1000
     42 H42       -10.8053   -0.8008   60.0491 H       1  ZINC000265724350    0.0600
     43 H43        -8.4850   -3.4138   61.1140 H       1  ZINC000265724350    0.1000
     44 H44       -10.2030   -2.9455   61.1044 H       1  ZINC000265724350    0.0600
     45 H45        -9.7989   -4.6646   59.3895 H       1  ZINC000265724350    0.0900
     46 H46        -8.5136   -3.6672   58.6656 H       1  ZINC000265724350    0.0400
@<TRIPOS>BOND
     1     1     2    1
     2     1    25    1
     3     1    26    1
     4     1    27    1
     5     2     3   am
     6     2    28    1
     7     3     4    2
     8     3     5    2
     9     3     6    1
    10     6    24    1
    11     6     7    2
    12     7     8    1
    13     7    29    1
    14     8     9    2
    15     8    30    1
    16     9    10    1
    17     9    24    1
    18    10    11    2
    19    10    12   am
    20    12    13    1
    21    12    31    1
    22    13    14    1
    23    13    32    1
    24    13    33    1
    25    14    15    1
    26    14    16    1
    27    14    17    1
    28    16    34    1
    29    16    35    1
    30    16    36    1
    31    17    18    1
    32    17    37    1
    33    17    38    1
    34    18    23    1
    35    18    19    1
    36    19    20    1
    37    19    39    1
    38    19    40    1
    39    20    21    1
    40    20    41    1
    41    20    42    1
    42    21    22    1
    43    22    23    1
    44    22    43    1
    45    22    44    1
    46    23    45    1
    47    23    46    1
@<TRIPOS>SUBSTRUCTURE
     1 ZINC000265724350        1 TEMP              0 ****  ****    0 ROOT


##########                                Name:    ZINC000482540246
##########                DOCK_Rotatable_Bonds:                  10
##########                         Heavy_Atoms:                  30
##########                    Molecular_Weight:              409.46
##########                DOCK_Rotatable_Bonds:                  10
##########                       Formal_Charge:         2.83122e-07
##########                     HBond_Acceptors:                   7
##########                        HBond_Donors:                   2
##########                         Heavy_Atoms:                  30
##########                          Grid_Score:          -38.398586
##########                     Grid_vdw_energy:          -38.226536
##########                      Grid_es_energy:           -0.172051
##########           Internal_energy_repulsive:           24.678629

@<TRIPOS>MOLECULE
ZINC000482540246
 54 56 1 0 0
SMALL
USER_CHARGES


@<TRIPOS>ATOM
      1 C1         -6.9328    1.1923   52.1328 C.3     1  ZINC000482540246    0.0400
      2 O2         -7.5447   -0.0990   52.1403 O.3     1  ZINC000482540246   -0.3100
      3 C3         -8.8959   -0.1397   52.2567 C.ar    1  ZINC000482540246    0.3300
      4 C4         -9.5514   -1.3639   52.2371 C.ar    1  ZINC000482540246   -0.1800
      5 C5        -10.9301   -1.3916   52.3567 C.ar    1  ZINC000482540246   -0.0100
      6 C6        -11.6789   -2.6995   52.3405 C.3     1  ZINC000482540246    0.2000
      7 H7        -11.3813   -3.2777   51.4658 H       1  ZINC000482540246    0.1000
      8 C8        -13.1830   -2.4252   52.2831 C.3     1  ZINC000482540246   -0.1600
      9 N9        -11.3665   -3.4560   53.5555 N.am    1  ZINC000482540246   -0.7400
     10 C10       -11.5149   -2.8798   54.7648 C.2     1  ZINC000482540246    0.7100
     11 O11       -11.9066   -1.7316   54.8474 O.2     1  ZINC000482540246   -0.5800
     12 N12       -11.2291   -3.5762   55.8828 N.am    1  ZINC000482540246   -0.7400
     13 C13       -11.3921   -2.9505   57.1974 C.3     1  ZINC000482540246    0.2100
     14 H14       -11.2236   -1.8770   57.1123 H       1  ZINC000482540246    0.1200
     15 C15       -10.3803   -3.5495   58.1763 C.3     1  ZINC000482540246    0.0500
     16 O16        -9.3032   -2.6306   58.3699 O.3     1  ZINC000482540246   -0.3000
     17 C17        -9.3027   -1.9148   59.5258 C.ar    1  ZINC000482540246    0.1000
     18 C18        -8.8716   -2.5012   60.7055 C.ar    1  ZINC000482540246   -0.1800
     19 C19        -8.8714   -1.7716   61.8795 C.ar    1  ZINC000482540246   -0.0900
     20 C20        -9.3005   -0.4577   61.8790 C.ar    1  ZINC000482540246   -0.1300
     21 C21        -9.7318    0.1312   60.7042 C.ar    1  ZINC000482540246   -0.1200
     22 C22        -9.7288   -0.5923   59.5257 C.ar    1  ZINC000482540246    0.0700
     23 F23       -10.1501   -0.0174   58.3780 F       1  ZINC000482540246   -0.1300
     24 C24       -12.7894   -3.2011   57.7033 C.ar    1  ZINC000482540246   -0.1000
     25 C25       -13.5356   -2.1575   58.2180 C.ar    1  ZINC000482540246   -0.0800
     26 C26       -14.8173   -2.3875   58.6820 C.ar    1  ZINC000482540246   -0.1200
     27 C27       -15.3529   -3.6608   58.6309 C.ar    1  ZINC000482540246   -0.1200
     28 C28       -14.6070   -4.7041   58.1154 C.ar    1  ZINC000482540246   -0.1200
     29 C29       -13.3269   -4.4734   57.6473 C.ar    1  ZINC000482540246   -0.1000
     30 C30       -11.6071   -0.1879   52.4923 C.ar    1  ZINC000482540246   -0.2100
     31 C31       -10.8906    0.9926   52.5037 C.ar    1  ZINC000482540246    0.1500
     32 N32        -9.5759    0.9867   52.3931 N.ar    1  ZINC000482540246   -0.5400
     33 H33        -5.8528    1.0821   52.0346 H       1  ZINC000482540246    0.1000
     34 H34        -7.3167    1.7714   51.2928 H       1  ZINC000482540246    0.0600
     35 H35        -7.1622    1.7085   53.0650 H       1  ZINC000482540246    0.0600
     36 H36        -8.9928   -2.2820   52.1296 H       1  ZINC000482540246    0.1500
     37 H37       -13.4805   -1.8469   53.1578 H       1  ZINC000482540246    0.0600
     38 H38       -13.4154   -1.8623   51.3791 H       1  ZINC000482540246    0.0700
     39 H39       -13.7246   -3.3711   52.2714 H       1  ZINC000482540246    0.0700
     40 H40       -11.0529   -4.3714   53.4897 H       1  ZINC000482540246    0.4000
     41 H41       -10.9155   -4.4917   55.8170 H       1  ZINC000482540246    0.4000
     42 H42       -10.8692   -3.7427   59.1312 H       1  ZINC000482540246    0.0800
     43 H43        -9.9922   -4.4840   57.7712 H       1  ZINC000482540246    0.0800
     44 H44        -8.5364   -3.5279   60.7075 H       1  ZINC000482540246    0.1400
     45 H45        -8.5358   -2.2289   62.7986 H       1  ZINC000482540246    0.1300
     46 H46        -9.2993    0.1100   62.7977 H       1  ZINC000482540246    0.1400
     47 H47       -10.0670    1.1579   60.7066 H       1  ZINC000482540246    0.1400
     48 H48       -13.1171   -1.1627   58.2580 H       1  ZINC000482540246    0.1200
     49 H49       -15.4001   -1.5723   59.0849 H       1  ZINC000482540246    0.1200
     50 H50       -16.3540   -3.8405   58.9941 H       1  ZINC000482540246    0.1200
     51 H51       -15.0252   -5.6990   58.0757 H       1  ZINC000482540246    0.1200
     52 H52       -12.7441   -5.2886   57.2445 H       1  ZINC000482540246    0.1200
     53 H53       -12.6828   -0.1743   52.5875 H       1  ZINC000482540246    0.1400
     54 H54       -11.4126    1.9321   52.6090 H       1  ZINC000482540246    0.1600
@<TRIPOS>BOND
     1     1     2    1
     2     1    33    1
     3     1    34    1
     4     1    35    1
     5     2     3    1
     6     3    32   ar
     7     3     4   ar
     8     4     5   ar
     9     4    36    1
    10     5     6    1
    11     5    30   ar
    12     6     7    1
    13     6     8    1
    14     6     9    1
    15     8    37    1
    16     8    38    1
    17     8    39    1
    18     9    10   am
    19     9    40    1
    20    10    11    2
    21    10    12   am
    22    12    13    1
    23    12    41    1
    24    13    14    1
    25    13    15    1
    26    13    24    1
    27    15    16    1
    28    15    42    1
    29    15    43    1
    30    16    17    1
    31    17    22   ar
    32    17    18   ar
    33    18    19   ar
    34    18    44    1
    35    19    20   ar
    36    19    45    1
    37    20    21   ar
    38    20    46    1
    39    21    22   ar
    40    21    47    1
    41    22    23    1
    42    24    29   ar
    43    24    25   ar
    44    25    26   ar
    45    25    48    1
    46    26    27   ar
    47    26    49    1
    48    27    28   ar
    49    27    50    1
    50    28    29   ar
    51    28    51    1
    52    29    52    1
    53    30    31   ar
    54    30    53    1
    55    31    32   ar
    56    31    54    1
@<TRIPOS>SUBSTRUCTURE
     1 ZINC000482540246        1 TEMP              0 ****  ****    0 ROOT


##########                                Name:    ZINC000508782983
##########                DOCK_Rotatable_Bonds:                   9
##########                         Heavy_Atoms:                  27
##########                    Molecular_Weight:             373.458
##########                DOCK_Rotatable_Bonds:                   9
##########                       Formal_Charge:          -0.0200006
##########                     HBond_Acceptors:                   9
##########                        HBond_Donors:                   2
##########                         Heavy_Atoms:                  27
##########                          Grid_Score:          -38.350235
##########                     Grid_vdw_energy:          -34.357018
##########                      Grid_es_energy:           -3.993217
##########           Internal_energy_repulsive:           12.709380

@<TRIPOS>MOLECULE
ZINC000508782983
 54 56 1 0 0
SMALL
USER_CHARGES


@<TRIPOS>ATOM
      1 C1        -14.0784   -0.2998   52.3775 C.3     1  ZINC000508782983   -0.1500
      2 C2        -14.5804   -1.3830   53.3344 C.3     1  ZINC000508782983   -0.1100
      3 C3        -16.1095   -1.3534   53.3810 C.3     1  ZINC000508782983   -0.1500
      4 C4        -14.1116   -2.7542   52.8436 C.3     1  ZINC000508782983    0.1000
      5 N5        -12.6496   -2.8225   52.9085 N.pl3   1  ZINC000508782983   -0.4400
      6 C6        -11.7747   -2.4534   51.9225 C.2     1  ZINC000508782983   -0.0400
      7 C7        -10.5348   -2.6785   52.3974 C.2     1  ZINC000508782983   -0.0300
      8 N8        -10.6495   -3.1716   53.6396 N.2     1  ZINC000508782983   -0.4700
      9 C9        -11.9132   -3.2558   53.9541 C.2     1  ZINC000508782983    0.1700
     10 C10       -12.4604   -3.7618   55.2640 C.3     1  ZINC000508782983    0.2100
     11 N11       -11.4561   -3.5809   56.3152 N.am    1  ZINC000508782983   -0.6900
     12 C12       -11.5517   -4.2767   57.4655 C.2     1  ZINC000508782983    0.5100
     13 O13       -12.4688   -5.0542   57.6298 O.2     1  ZINC000508782983   -0.5100
     14 C14       -10.5282   -4.0908   58.5386 C.2     1  ZINC000508782983    0.5100
     15 O15        -9.5492   -4.8068   58.5738 O.2     1  ZINC000508782983   -0.5200
     16 N16       -10.6927   -3.1279   59.4672 N.am    1  ZINC000508782983   -0.5800
     17 C17        -9.6947   -2.9239   60.5281 C.3     1  ZINC000508782983    0.0800
     18 C18        -9.3098   -1.4409   60.5556 C.3     1  ZINC000508782983    0.0400
     19 N19       -10.5250   -0.6251   60.6808 N.3     1  ZINC000508782983   -0.5400
     20 C20       -10.1900    0.7908   60.8834 C.3     1  ZINC000508782983    0.1400
     21 C21       -10.3070    1.1302   62.3471 C.2     1  ZINC000508782983    0.2100
     22 N22       -10.9925    0.4583   63.2312 N.2     1  ZINC000508782983   -0.4900
     23 C23       -10.8685    1.0489   64.4290 C.2     1  ZINC000508782983   -0.0300
     24 C24       -10.0761    2.1276   64.2816 C.2     1  ZINC000508782983   -0.0500
     25 N25        -9.7153    2.1767   62.9621 N.pl3   1  ZINC000508782983   -0.5600
     26 C26       -11.4042   -0.7966   59.5165 C.3     1  ZINC000508782983    0.0400
     27 C27       -11.8720   -2.2492   59.4427 C.3     1  ZINC000508782983    0.1100
     28 H28       -14.4125    0.6771   52.7271 H       1  ZINC000508782983    0.0700
     29 H29       -12.9891   -0.3208   52.3443 H       1  ZINC000508782983    0.0600
     30 H30       -14.4760   -0.4840   51.3795 H       1  ZINC000508782983    0.0600
     31 H31       -14.1829   -1.1988   54.3325 H       1  ZINC000508782983    0.0800
     32 H32       -16.5059   -1.4606   52.3714 H       1  ZINC000508782983    0.0600
     33 H33       -16.4699   -2.1736   54.0019 H       1  ZINC000508782983    0.0600
     34 H34       -16.4418   -0.4050   53.8031 H       1  ZINC000508782983    0.0600
     35 H35       -14.5400   -3.5322   53.4754 H       1  ZINC000508782983    0.1000
     36 H36       -14.4369   -2.9021   51.8139 H       1  ZINC000508782983    0.0900
     37 H37       -12.0298   -2.0580   50.9503 H       1  ZINC000508782983    0.1800
     38 H38        -9.6102   -2.4943   51.8707 H       1  ZINC000508782983    0.1700
     39 H39       -13.3605   -3.2038   55.5216 H       1  ZINC000508782983    0.0900
     40 H40       -12.7031   -4.8205   55.1718 H       1  ZINC000508782983    0.1100
     41 H41       -10.7224   -2.9603   56.1834 H       1  ZINC000508782983    0.4200
     42 H42       -10.1196   -3.2098   61.4903 H       1  ZINC000508782983    0.0800
     43 H43        -8.8113   -3.5277   60.3208 H       1  ZINC000508782983    0.1400
     44 H44        -8.6550   -1.2508   61.4060 H       1  ZINC000508782983    0.0900
     45 H45        -8.7916   -1.1824   59.6322 H       1  ZINC000508782983    0.0400
     46 H46        -9.1691    0.9742   60.5485 H       1  ZINC000508782983    0.0900
     47 H47       -10.8777    1.4126   60.3102 H       1  ZINC000508782983    0.0700
     48 H48       -11.3242    0.7173   65.3503 H       1  ZINC000508782983    0.1700
     49 H49        -9.7788    2.8189   65.0564 H       1  ZINC000508782983    0.1800
     50 H50        -9.1455    2.8421   62.5456 H       1  ZINC000508782983    0.4200
     51 H51       -12.2683   -0.1393   59.6133 H       1  ZINC000508782983    0.1100
     52 H52       -10.8569   -0.5471   58.6075 H       1  ZINC000508782983    0.0400
     53 H53       -12.4298   -2.4079   58.5198 H       1  ZINC000508782983    0.1000
     54 H54       -12.5062   -2.4737   60.3004 H       1  ZINC000508782983    0.0800
@<TRIPOS>BOND
     1     1     2    1
     2     1    28    1
     3     1    29    1
     4     1    30    1
     5     2     3    1
     6     2     4    1
     7     2    31    1
     8     3    32    1
     9     3    33    1
    10     3    34    1
    11     4     5    1
    12     4    35    1
    13     4    36    1
    14     5     9    1
    15     5     6    1
    16     6     7    2
    17     6    37    1
    18     7     8    1
    19     7    38    1
    20     8     9    2
    21     9    10    1
    22    10    11    1
    23    10    39    1
    24    10    40    1
    25    11    12   am
    26    11    41    1
    27    12    13    2
    28    12    14    1
    29    14    15    2
    30    14    16   am
    31    16    27    1
    32    16    17    1
    33    17    18    1
    34    17    42    1
    35    17    43    1
    36    18    19    1
    37    18    44    1
    38    18    45    1
    39    19    20    1
    40    19    26    1
    41    20    21    1
    42    20    46    1
    43    20    47    1
    44    21    25    1
    45    21    22    2
    46    22    23    1
    47    23    24    2
    48    23    48    1
    49    24    25    1
    50    24    49    1
    51    25    50    1
    52    26    27    1
    53    26    51    1
    54    26    52    1
    55    27    53    1
    56    27    54    1
@<TRIPOS>SUBSTRUCTURE
     1 ZINC000508782983        1 TEMP              0 ****  ****    0 ROOT


##########                                Name:    ZINC001191196975
##########                DOCK_Rotatable_Bonds:                  14
##########                         Heavy_Atoms:                  24
##########                    Molecular_Weight:             339.438
##########                DOCK_Rotatable_Bonds:                  14
##########                       Formal_Charge:          0.00999969
##########                     HBond_Acceptors:                   8
##########                        HBond_Donors:                   4
##########                         Heavy_Atoms:                  24
##########                          Grid_Score:          -38.299236
##########                     Grid_vdw_energy:          -35.110664
##########                      Grid_es_energy:           -3.188571
##########           Internal_energy_repulsive:           14.220966

@<TRIPOS>MOLECULE
ZINC001191196975
 53 53 1 0 0
SMALL
USER_CHARGES


@<TRIPOS>ATOM
      1 C1         -8.3634    2.2582   55.4791 C.2     1  ZINC001191196975   -0.1600
      2 C2         -8.3993    2.0072   56.7642 C.2     1  ZINC001191196975   -0.1800
      3 C3         -9.2433    2.8607   57.6754 C.3     1  ZINC001191196975    0.1500
      4 N4         -9.6803    2.0642   58.8247 N.am    1  ZINC001191196975   -0.7300
      5 C5        -10.6988    1.1917   58.6916 C.2     1  ZINC001191196975    0.5100
      6 O6        -11.2527    1.0650   57.6202 O.2     1  ZINC001191196975   -0.5200
      7 C7        -11.1494    0.3736   59.8743 C.3     1  ZINC001191196975    0.0300
      8 N8        -10.0168   -0.4071   60.3898 N.3     1  ZINC001191196975   -0.5100
      9 C9         -9.7242   -0.0521   61.7850 C.3     1  ZINC001191196975    0.0200
     10 C10       -10.2660   -1.8485   60.2545 C.3     1  ZINC001191196975    0.0700
     11 H11       -11.0250   -2.1798   60.9632 H       1  ZINC001191196975    0.0600
     12 C12        -8.9536   -2.6582   60.4259 C.3     1  ZINC001191196975   -0.1200
     13 C13        -9.2313   -3.9420   59.6156 C.3     1  ZINC001191196975    0.1000
     14 N14       -10.2926   -3.6266   58.6483 N.am    1  ZINC001191196975   -0.6200
     15 C15       -10.8346   -4.4907   57.7675 C.2     1  ZINC001191196975    0.5300
     16 O16       -10.4492   -5.6401   57.7299 O.2     1  ZINC001191196975   -0.5400
     17 C17       -11.9196   -4.0289   56.8292 C.3     1  ZINC001191196975   -0.1300
     18 C18       -11.2887   -3.3173   55.6306 C.3     1  ZINC001191196975   -0.1000
     19 C19       -12.0707   -3.6639   54.3621 C.3     1  ZINC001191196975   -0.1300
     20 C20       -11.2604   -3.2462   53.1333 C.3     1  ZINC001191196975    0.1400
     21 N21       -10.8729   -1.8391   53.2590 N.am    1  ZINC001191196975   -0.7500
     22 C22        -9.7809   -1.3807   52.6156 C.2     1  ZINC001191196975    0.7000
     23 N23        -9.4253   -0.0858   52.7300 N.am    1  ZINC001191196975   -0.8700
     24 O24        -9.1165   -2.1355   51.9321 O.2     1  ZINC001191196975   -0.5900
     25 C25       -10.6674   -2.2086   58.8023 C.3     1  ZINC001191196975    0.1100
     26 H26        -8.9386    3.0769   55.0725 H       1  ZINC001191196975    0.1000
     27 H27        -7.7551    1.6492   54.8268 H       1  ZINC001191196975    0.1000
     28 H28        -7.8242    1.1885   57.1709 H       1  ZINC001191196975    0.1200
     29 H29        -8.6562    3.7103   58.0243 H       1  ZINC001191196975    0.0800
     30 H30       -10.1157    3.2213   57.1304 H       1  ZINC001191196975    0.0700
     31 H31        -9.2365    2.1648   59.6813 H       1  ZINC001191196975    0.4000
     32 H32       -11.5186    1.0376   60.6559 H       1  ZINC001191196975    0.0700
     33 H33       -11.9465   -0.3028   59.5658 H       1  ZINC001191196975    0.1100
     34 H34       -10.6303   -0.1509   62.3827 H       1  ZINC001191196975    0.0200
     35 H35        -8.9562   -0.7193   62.1762 H       1  ZINC001191196975    0.0700
     36 H36        -9.3689    0.9774   61.8311 H       1  ZINC001191196975    0.0900
     37 H37        -8.1070   -2.1137   60.0077 H       1  ZINC001191196975    0.0900
     38 H38        -8.7807   -2.8948   61.4758 H       1  ZINC001191196975    0.0800
     39 H39        -8.3285   -4.2499   59.0882 H       1  ZINC001191196975    0.0700
     40 H40        -9.5626   -4.7374   60.2832 H       1  ZINC001191196975    0.0700
     41 H41       -12.4900   -4.8902   56.4814 H       1  ZINC001191196975    0.0900
     42 H42       -12.5835   -3.3406   57.3521 H       1  ZINC001191196975    0.0900
     43 H43       -11.3169   -2.2397   55.7918 H       1  ZINC001191196975    0.0800
     44 H44       -10.2538   -3.6410   55.5193 H       1  ZINC001191196975    0.0800
     45 H45       -12.2524   -4.7382   54.3295 H       1  ZINC001191196975    0.0700
     46 H46       -13.0232   -3.1342   54.3663 H       1  ZINC001191196975    0.0700
     47 H47       -10.3657   -3.8644   53.0608 H       1  ZINC001191196975    0.0700
     48 H48       -11.8664   -3.3775   52.2368 H       1  ZINC001191196975    0.0700
     49 H49       -11.4023   -1.2372   53.8053 H       1  ZINC001191196975    0.4000
     50 H50        -8.6400    0.2444   52.2660 H       1  ZINC001191196975    0.4000
     51 H51        -9.9547    0.5160   53.2764 H       1  ZINC001191196975    0.4200
     52 H52       -11.7409   -2.0826   58.6620 H       1  ZINC001191196975    0.0800
     53 H53       -10.1162   -1.5914   58.0929 H       1  ZINC001191196975    0.0800
@<TRIPOS>BOND
     1     1     2    2
     2     1    26    1
     3     1    27    1
     4     2     3    1
     5     2    28    1
     6     3     4    1
     7     3    29    1
     8     3    30    1
     9     4     5   am
    10     4    31    1
    11     5     6    2
    12     5     7    1
    13     7     8    1
    14     7    32    1
    15     7    33    1
    16     8     9    1
    17     8    10    1
    18     9    34    1
    19     9    35    1
    20     9    36    1
    21    10    11    1
    22    10    25    1
    23    10    12    1
    24    12    13    1
    25    12    37    1
    26    12    38    1
    27    13    14    1
    28    13    39    1
    29    13    40    1
    30    14    15   am
    31    14    25    1
    32    15    16    2
    33    15    17    1
    34    17    18    1
    35    17    41    1
    36    17    42    1
    37    18    19    1
    38    18    43    1
    39    18    44    1
    40    19    20    1
    41    19    45    1
    42    19    46    1
    43    20    21    1
    44    20    47    1
    45    20    48    1
    46    21    22   am
    47    21    49    1
    48    22    23   am
    49    22    24    2
    50    23    50    1
    51    23    51    1
    52    25    52    1
    53    25    53    1
@<TRIPOS>SUBSTRUCTURE
     1 ZINC001191196975        1 TEMP              0 ****  ****    0 ROOT


##########                                Name:    ZINC000058174787
##########                DOCK_Rotatable_Bonds:                   9
##########                         Heavy_Atoms:                  27
##########                    Molecular_Weight:             413.882
##########                DOCK_Rotatable_Bonds:                   9
##########                       Formal_Charge:           0.0200002
##########                     HBond_Acceptors:                  10
##########                        HBond_Donors:                   1
##########                         Heavy_Atoms:                  27
##########                          Grid_Score:          -38.277939
##########                     Grid_vdw_energy:          -38.699364
##########                      Grid_es_energy:            0.421426
##########           Internal_energy_repulsive:            7.539447

@<TRIPOS>MOLECULE
ZINC000058174787
 47 48 1 0 0
SMALL
USER_CHARGES


@<TRIPOS>ATOM
      1 C1         -7.0669   -0.2161   50.7405 C.3     1  ZINC000058174787   -0.0700
      2 C2         -7.8040    0.4703   51.8616 C.2     1  ZINC000058174787    0.2100
      3 N3         -8.4432   -0.1274   52.8297 N.2     1  ZINC000058174787   -0.4200
      4 C4         -8.9768    0.7957   53.6435 C.2     1  ZINC000058174787   -0.5600
      5 S5         -9.9302    0.4739   55.0899 S.o2    1  ZINC000058174787    2.7400
      6 O6         -9.0032    0.1580   56.1195 O.2     1  ZINC000058174787   -0.9500
      7 O7        -10.8743    1.5310   55.1915 O.2     1  ZINC000058174787   -0.9600
      8 N8        -10.8015   -0.9055   54.8058 N.am    1  ZINC000058174787   -1.1100
      9 C9        -11.7534   -0.9545   53.6933 C.3     1  ZINC000058174787    0.1300
     10 C10       -11.4171   -2.1400   52.7863 C.3     1  ZINC000058174787   -0.1200
     11 C11       -11.4442   -3.4128   53.5924 C.2     1  ZINC000058174787    0.4700
     12 O12       -10.8941   -4.4043   53.1748 O.2     1  ZINC000058174787   -0.5000
     13 O13       -12.0793   -3.4453   54.7746 O.3     1  ZINC000058174787   -0.3300
     14 C14       -13.0832   -4.4786   54.9553 C.3     1  ZINC000058174787    0.0400
     15 H15       -12.8961   -5.2934   54.2559 H       1  ZINC000058174787    0.1200
     16 C16       -14.4719   -3.8917   54.6949 C.3     1  ZINC000058174787   -0.1700
     17 C17       -13.0159   -5.0029   56.3666 C.2     1  ZINC000058174787    0.4000
     18 O18       -13.7029   -5.9463   56.6964 O.2     1  ZINC000058174787   -0.4200
     19 C19       -12.1169   -4.3705   57.3440 C.ar    1  ZINC000058174787   -0.1600
     20 C20       -12.4847   -3.1716   57.9642 C.ar    1  ZINC000058174787   -0.0600
     21 C21       -11.6374   -2.5850   58.8793 C.ar    1  ZINC000058174787   -0.1200
     22 C22       -10.4240   -3.1798   59.1857 C.ar    1  ZINC000058174787    0.0000
     23 Cl23       -9.3635   -2.4341   60.3401 Cl      1  ZINC000058174787   -0.0500
     24 C24       -10.0532   -4.3673   58.5753 C.ar    1  ZINC000058174787   -0.1200
     25 C25       -10.8926   -4.9680   57.6622 C.ar    1  ZINC000058174787   -0.0400
     26 C26        -8.6560    2.0115   53.1614 C.2     1  ZINC000058174787    0.0700
     27 N27        -7.9076    1.8057   52.0340 N.pl3   1  ZINC000058174787   -0.4500
     28 C28        -7.3333    2.8408   51.1708 C.3     1  ZINC000058174787    0.0600
     29 H29        -6.0325   -0.3884   51.0377 H       1  ZINC000058174787    0.0900
     30 H30        -7.5458   -1.1705   50.5215 H       1  ZINC000058174787    0.1000
     31 H31        -7.0894    0.4142   49.8515 H       1  ZINC000058174787    0.0800
     32 H32       -10.6815   -1.6809   55.3760 H       1  ZINC000058174787    0.4200
     33 H33       -12.7640   -1.0717   54.0846 H       1  ZINC000058174787    0.0900
     34 H34       -11.6906   -0.0294   53.1202 H       1  ZINC000058174787    0.0900
     35 H35       -12.1514   -2.2027   51.9832 H       1  ZINC000058174787    0.1200
     36 H36       -10.4236   -2.0010   52.3601 H       1  ZINC000058174787    0.1200
     37 H37       -14.6590   -3.0770   55.3945 H       1  ZINC000058174787    0.0800
     38 H38       -14.5206   -3.5126   53.6742 H       1  ZINC000058174787    0.0800
     39 H39       -15.2256   -4.6674   54.8306 H       1  ZINC000058174787    0.0800
     40 H40       -13.4299   -2.7067   57.7260 H       1  ZINC000058174787    0.1400
     41 H41       -11.9199   -1.6592   59.3586 H       1  ZINC000058174787    0.1400
     42 H42        -9.1059   -4.8253   58.8189 H       1  ZINC000058174787    0.1400
     43 H43       -10.6025   -5.8936   57.1875 H       1  ZINC000058174787    0.1500
     44 H44        -8.9326    2.9656   53.5852 H       1  ZINC000058174787    0.1900
     45 H45        -6.3349    3.0969   51.5254 H       1  ZINC000058174787    0.0900
     46 H46        -7.2711    2.4679   50.1485 H       1  ZINC000058174787    0.1000
     47 H47        -7.9666    3.7275   51.1962 H       1  ZINC000058174787    0.0900
@<TRIPOS>BOND
     1     1     2    1
     2     1    29    1
     3     1    30    1
     4     1    31    1
     5     2    27    1
     6     2     3    2
     7     3     4    1
     8     4     5    1
     9     4    26    2
    10     5     6    2
    11     5     7    2
    12     5     8   am
    13     8     9    1
    14     8    32    1
    15     9    10    1
    16     9    33    1
    17     9    34    1
    18    10    11    1
    19    10    35    1
    20    10    36    1
    21    11    12    2
    22    11    13    1
    23    13    14    1
    24    14    15    1
    25    14    16    1
    26    14    17    1
    27    16    37    1
    28    16    38    1
    29    16    39    1
    30    17    18    2
    31    17    19    1
    32    19    25   ar
    33    19    20   ar
    34    20    21   ar
    35    20    40    1
    36    21    22   ar
    37    21    41    1
    38    22    23    1
    39    22    24   ar
    40    24    25   ar
    41    24    42    1
    42    25    43    1
    43    26    27    1
    44    26    44    1
    45    27    28    1
    46    28    45    1
    47    28    46    1
    48    28    47    1
@<TRIPOS>SUBSTRUCTURE
     1 ZINC000058174787        1 TEMP              0 ****  ****    0 ROOT


##########                                Name:    ZINC000762187039
##########                DOCK_Rotatable_Bonds:                   9
##########                         Heavy_Atoms:                  25
##########                    Molecular_Weight:             354.473
##########                DOCK_Rotatable_Bonds:                   9
##########                       Formal_Charge:        -1.78814e-07
##########                     HBond_Acceptors:                   5
##########                        HBond_Donors:                   1
##########                         Heavy_Atoms:                  25
##########                          Grid_Score:          -38.271423
##########                     Grid_vdw_energy:          -38.129482
##########                      Grid_es_energy:           -0.141940
##########           Internal_energy_repulsive:            7.503349

@<TRIPOS>MOLECULE
ZINC000762187039
 47 49 1 0 0
SMALL
USER_CHARGES


@<TRIPOS>ATOM
      1 C1         -7.2029    2.5600   51.9952 C.3     1  ZINC000762187039   -0.0800
      2 C2         -7.6905    1.1340   51.9887 C.2     1  ZINC000762187039    0.0500
      3 N3         -8.7819    0.7241   52.5415 N.2     1  ZINC000762187039   -0.4700
      4 C4         -9.0608   -0.5600   52.4414 C.2     1  ZINC000762187039    0.0700
      5 C5        -10.3007   -1.1739   53.0385 C.3     1  ZINC000762187039   -0.0300
      6 C6        -10.7655   -2.3390   52.1626 C.3     1  ZINC000762187039   -0.1300
      7 C7        -12.0106   -2.9474   52.7549 C.2     1  ZINC000762187039    0.5200
      8 O8        -13.1030   -2.5474   52.4120 O.2     1  ZINC000762187039   -0.5400
      9 N9        -11.9100   -3.9357   53.6656 N.am    1  ZINC000762187039   -0.7300
     10 C10       -13.1203   -4.5259   54.2426 C.3     1  ZINC000762187039    0.1200
     11 C11       -13.4969   -3.7715   55.5193 C.3     1  ZINC000762187039   -0.1300
     12 C12       -12.8468   -4.4530   56.7251 C.3     1  ZINC000762187039    0.0600
     13 O13       -11.4432   -4.1846   56.7243 O.3     1  ZINC000762187039   -0.3100
     14 C14       -10.9424   -3.5163   57.7962 C.ar    1  ZINC000762187039    0.1300
     15 C15       -10.2375   -4.2177   58.7789 C.ar    1  ZINC000762187039   -0.1900
     16 C16        -9.7243   -3.5767   59.8633 C.ar    1  ZINC000762187039   -0.0600
     17 C17        -9.9025   -2.1893   60.0017 C.ar    1  ZINC000762187039   -0.0800
     18 C18        -9.3853   -1.4953   61.1088 C.ar    1  ZINC000762187039   -0.0900
     19 C19        -9.5761   -0.1516   61.2108 C.ar    1  ZINC000762187039   -0.1300
     20 C20       -10.2782    0.5500   60.2323 C.ar    1  ZINC000762187039   -0.1000
     21 C21       -10.7934   -0.0881   59.1464 C.ar    1  ZINC000762187039   -0.1200
     22 C22       -10.6165   -1.4758   59.0063 C.ar    1  ZINC000762187039   -0.0100
     23 C23       -11.1295   -2.1668   57.8968 C.ar    1  ZINC000762187039   -0.1500
     24 C24        -8.1540   -1.2730   51.7665 C.2     1  ZINC000762187039   -0.2600
     25 S25        -6.8811   -0.1736   51.2415 S.3     1  ZINC000762187039    0.1200
     26 H26        -6.2598    2.6240   51.4525 H       1  ZINC000762187039    0.0800
     27 H27        -7.9431    3.1992   51.5139 H       1  ZINC000762187039    0.0900
     28 H28        -7.0532    2.8880   53.0238 H       1  ZINC000762187039    0.0900
     29 H29       -10.0787   -1.5391   54.0412 H       1  ZINC000762187039    0.0900
     30 H30       -11.0886   -0.4225   53.0916 H       1  ZINC000762187039    0.0900
     31 H31       -10.9814   -1.9749   51.1582 H       1  ZINC000762187039    0.0900
     32 H32        -9.9800   -3.0933   52.1146 H       1  ZINC000762187039    0.1000
     33 H33       -11.0363   -4.2564   53.9389 H       1  ZINC000762187039    0.4000
     34 H34       -13.9371   -4.4548   53.5244 H       1  ZINC000762187039    0.0700
     35 H35       -12.9359   -5.5735   54.4807 H       1  ZINC000762187039    0.0700
     36 H36       -13.1449   -2.7422   55.4502 H       1  ZINC000762187039    0.0800
     37 H37       -14.5803   -3.7778   55.6389 H       1  ZINC000762187039    0.0800
     38 H38       -13.2899   -4.0672   57.6431 H       1  ZINC000762187039    0.0700
     39 H39       -13.0110   -5.5289   56.6665 H       1  ZINC000762187039    0.0700
     40 H40       -10.0987   -5.2838   58.6758 H       1  ZINC000762187039    0.1300
     41 H41        -9.1825   -4.1314   60.6150 H       1  ZINC000762187039    0.1300
     42 H42        -8.8394   -2.0256   61.8751 H       1  ZINC000762187039    0.1300
     43 H43        -9.1777    0.3789   62.0630 H       1  ZINC000762187039    0.1200
     44 H44       -10.4157    1.6161   60.3377 H       1  ZINC000762187039    0.1200
     45 H45       -11.3352    0.4685   58.3961 H       1  ZINC000762187039    0.1300
     46 H46       -11.6719   -1.6351   57.1291 H       1  ZINC000762187039    0.1300
     47 H47        -8.1960   -2.3348   51.5737 H       1  ZINC000762187039    0.1800
@<TRIPOS>BOND
     1     1     2    1
     2     1    26    1
     3     1    27    1
     4     1    28    1
     5     2    25    1
     6     2     3    2
     7     3     4    1
     8     4     5    1
     9     4    24    2
    10     5     6    1
    11     5    29    1
    12     5    30    1
    13     6     7    1
    14     6    31    1
    15     6    32    1
    16     7     8    2
    17     7     9   am
    18     9    10    1
    19     9    33    1
    20    10    11    1
    21    10    34    1
    22    10    35    1
    23    11    12    1
    24    11    36    1
    25    11    37    1
    26    12    13    1
    27    12    38    1
    28    12    39    1
    29    13    14    1
    30    14    23   ar
    31    14    15   ar
    32    15    16   ar
    33    15    40    1
    34    16    17   ar
    35    16    41    1
    36    17    22   ar
    37    17    18   ar
    38    18    19   ar
    39    18    42    1
    40    19    20   ar
    41    19    43    1
    42    20    21   ar
    43    20    44    1
    44    21    22   ar
    45    21    45    1
    46    22    23   ar
    47    23    46    1
    48    24    25    1
    49    24    47    1
@<TRIPOS>SUBSTRUCTURE
     1 ZINC000762187039        1 TEMP              0 ****  ****    0 ROOT


##########                                Name:    ZINC000746432885
##########                DOCK_Rotatable_Bonds:                  11
##########                         Heavy_Atoms:                  31
##########                    Molecular_Weight:              419.44
##########                DOCK_Rotatable_Bonds:                  11
##########                       Formal_Charge:           0.0199995
##########                     HBond_Acceptors:                   9
##########                        HBond_Donors:                   2
##########                         Heavy_Atoms:                  31
##########                          Grid_Score:          -38.262218
##########                     Grid_vdw_energy:          -38.415146
##########                      Grid_es_energy:            0.152926
##########           Internal_energy_repulsive:           12.223307

@<TRIPOS>MOLECULE
ZINC000746432885
 52 54 1 0 0
SMALL
USER_CHARGES


@<TRIPOS>ATOM
      1 C1        -14.3510   -0.4651   62.1636 C.3     1  ZINC000746432885    0.0300
      2 O2        -13.0019   -0.7805   62.5136 O.3     1  ZINC000746432885   -0.3200
      3 C3        -12.0389   -0.4602   61.6096 C.ar    1  ZINC000746432885    0.1300
      4 C4        -10.9599    0.3233   61.9921 C.ar    1  ZINC000746432885   -0.2000
      5 C5         -9.9825    0.6475   61.0714 C.ar    1  ZINC000746432885   -0.0800
      6 C6        -10.0791    0.1923   59.7694 C.ar    1  ZINC000746432885   -0.1400
      7 C7        -11.1536   -0.5887   59.3857 C.ar    1  ZINC000746432885   -0.0600
      8 C8        -11.2557   -1.0836   57.9659 C.3     1  ZINC000746432885    0.2300
      9 N9        -10.2078   -0.4592   57.1545 N.am    1  ZINC000746432885   -0.6900
     10 C10       -10.3207   -0.4335   55.8118 C.2     1  ZINC000746432885    0.5200
     11 O11       -11.2897   -0.9291   55.2746 O.2     1  ZINC000746432885   -0.5100
     12 C12        -9.2536    0.2045   54.9848 C.2     1  ZINC000746432885    0.5100
     13 O13        -8.3317    0.7820   55.5239 O.2     1  ZINC000746432885   -0.5100
     14 N14        -9.3137    0.1393   53.6400 N.am    1  ZINC000746432885   -0.6100
     15 C15        -8.3089    0.7381   52.8620 C.2     1  ZINC000746432885    0.0000
     16 C16        -7.4671    0.0971   52.0099 C.2     1  ZINC000746432885    0.0400
     17 N17        -6.6551    1.0275   51.4588 N.pl3   1  ZINC000746432885   -0.3800
     18 C18        -5.5941    0.7736   50.4811 C.3     1  ZINC000746432885    0.2500
     19 C19        -4.5421    1.7934   50.6227 C.1     1  ZINC000746432885    0.1900
     20 N20        -3.7301    2.5803   50.7318 N.1     1  ZINC000746432885   -0.3900
     21 N21        -7.0066    2.2763   51.9865 N.2     1  ZINC000746432885   -0.2800
     22 C22        -7.9992    2.1063   52.8216 C.2     1  ZINC000746432885    0.0700
     23 C23       -11.0842   -2.5807   57.9423 C.ar    1  ZINC000746432885   -0.0500
     24 C24       -10.0023   -3.1621   58.5771 C.ar    1  ZINC000746432885   -0.1500
     25 C25        -9.8423   -4.5353   58.5576 C.ar    1  ZINC000746432885   -0.0700
     26 C26       -10.7637   -5.3300   57.9033 C.ar    1  ZINC000746432885   -0.2000
     27 C27       -11.8500   -4.7490   57.2655 C.ar    1  ZINC000746432885    0.1300
     28 O28       -12.7578   -5.5286   56.6212 O.3     1  ZINC000746432885   -0.3200
     29 C29       -14.1180   -5.4279   57.0474 C.3     1  ZINC000746432885    0.0300
     30 C30       -12.0111   -3.3713   57.2911 C.ar    1  ZINC000746432885   -0.1300
     31 C31       -12.1305   -0.9209   60.3042 C.ar    1  ZINC000746432885   -0.1300
     32 H32       -14.6216   -0.9918   61.2485 H       1  ZINC000746432885    0.0600
     33 H33       -15.0169   -0.7722   62.9700 H       1  ZINC000746432885    0.1000
     34 H34       -14.4436    0.6094   62.0053 H       1  ZINC000746432885    0.0600
     35 H35       -10.8842    0.6797   63.0088 H       1  ZINC000746432885    0.1300
     36 H36        -9.1421    1.2574   61.3686 H       1  ZINC000746432885    0.1300
     37 H37        -9.3144    0.4475   59.0508 H       1  ZINC000746432885    0.1200
     38 H38       -12.2332   -0.8234   57.5598 H       1  ZINC000746432885    0.1200
     39 H39        -9.4328   -0.0642   57.5837 H       1  ZINC000746432885    0.4200
     40 H40       -10.0509   -0.3211   53.2093 H       1  ZINC000746432885    0.4200
     41 H41        -7.4495   -0.9639   51.8090 H       1  ZINC000746432885    0.1900
     42 H42        -5.1681   -0.2144   50.6555 H       1  ZINC000746432885    0.1300
     43 H43        -6.0095    0.8176   49.4743 H       1  ZINC000746432885    0.1500
     44 H44        -8.4909    2.8838   53.3873 H       1  ZINC000746432885    0.2100
     45 H45        -9.2807   -2.5425   59.0889 H       1  ZINC000746432885    0.1200
     46 H46        -8.9961   -4.9871   59.0540 H       1  ZINC000746432885    0.1300
     47 H47       -10.6380   -6.4025   57.8881 H       1  ZINC000746432885    0.1300
     48 H48       -14.7359   -6.1008   56.4527 H       1  ZINC000746432885    0.1000
     49 H49       -14.1903   -5.7028   58.0996 H       1  ZINC000746432885    0.0600
     50 H50       -14.4653   -4.4032   56.9149 H       1  ZINC000746432885    0.0600
     51 H51       -12.8560   -2.9167   56.7954 H       1  ZINC000746432885    0.1400
     52 H52       -12.9697   -1.5309   60.0041 H       1  ZINC000746432885    0.1300
@<TRIPOS>BOND
     1     1     2    1
     2     1    32    1
     3     1    33    1
     4     1    34    1
     5     2     3    1
     6     3    31   ar
     7     3     4   ar
     8     4     5   ar
     9     4    35    1
    10     5     6   ar
    11     5    36    1
    12     6     7   ar
    13     6    37    1
    14     7     8    1
    15     7    31   ar
    16     8     9    1
    17     8    23    1
    18     8    38    1
    19     9    10   am
    20     9    39    1
    21    10    11    2
    22    10    12    1
    23    12    13    2
    24    12    14   am
    25    14    15    1
    26    14    40    1
    27    15    22    1
    28    15    16    2
    29    16    17    1
    30    16    41    1
    31    17    18    1
    32    17    21    1
    33    18    19    1
    34    18    42    1
    35    18    43    1
    36    19    20    3
    37    21    22    2
    38    22    44    1
    39    23    30   ar
    40    23    24   ar
    41    24    25   ar
    42    24    45    1
    43    25    26   ar
    44    25    46    1
    45    26    27   ar
    46    26    47    1
    47    27    28    1
    48    27    30   ar
    49    28    29    1
    50    29    48    1
    51    29    49    1
    52    29    50    1
    53    30    51    1
    54    31    52    1
@<TRIPOS>SUBSTRUCTURE
     1 ZINC000746432885        1 TEMP              0 ****  ****    0 ROOT


##########                                Name:    ZINC000465642058
##########                DOCK_Rotatable_Bonds:                  10
##########                         Heavy_Atoms:                  31
##########                    Molecular_Weight:             420.511
##########                DOCK_Rotatable_Bonds:                  10
##########                       Formal_Charge:          1.2666e-07
##########                     HBond_Acceptors:                   7
##########                        HBond_Donors:                   2
##########                         Heavy_Atoms:                  31
##########                          Grid_Score:          -38.256935
##########                     Grid_vdw_energy:          -35.886662
##########                      Grid_es_energy:           -2.370274
##########           Internal_energy_repulsive:           10.302170

@<TRIPOS>MOLECULE
ZINC000465642058
 59 62 1 0 0
SMALL
USER_CHARGES


@<TRIPOS>ATOM
      1 C1        -15.6446   -3.2684   59.1772 C.3     1  ZINC000465642058   -0.1500
      2 C2        -14.5819   -2.7702   60.1589 C.3     1  ZINC000465642058    0.0500
      3 O3        -13.7060   -1.8598   59.4911 O.3     1  ZINC000465642058   -0.3000
      4 C4        -12.5428   -1.5471   60.1221 C.ar    1  ZINC000465642058    0.1200
      5 C5        -12.5500   -0.6909   61.2142 C.ar    1  ZINC000465642058   -0.1600
      6 C6        -11.3691   -0.3784   61.8506 C.ar    1  ZINC000465642058   -0.1300
      7 C7        -10.1637   -0.9151   61.4179 C.ar    1  ZINC000465642058    0.0700
      8 C8        -10.1621   -1.7700   60.3185 C.ar    1  ZINC000465642058   -0.0700
      9 C9        -11.3434   -2.0868   59.6812 C.ar    1  ZINC000465642058   -0.1100
     10 C10       -11.3296   -3.0135   58.4929 C.3     1  ZINC000465642058    0.1900
     11 N11       -11.3553   -2.2251   57.2585 N.am    1  ZINC000465642058   -0.7300
     12 C12       -11.2135   -2.8361   56.0656 C.2     1  ZINC000465642058    0.7100
     13 O13       -11.0627   -4.0415   56.0141 O.2     1  ZINC000465642058   -0.5900
     14 N14       -11.2387   -2.1110   54.9298 N.am    1  ZINC000465642058   -0.6200
     15 C15       -11.4222   -0.6589   54.9918 C.3     1  ZINC000465642058    0.1900
     16 C16       -10.0793    0.0119   55.1250 C.2     1  ZINC000465642058    0.0500
     17 N17        -9.2424    0.2540   54.1489 N.2     1  ZINC000465642058   -0.2700
     18 N18        -8.1149    0.8884   54.6861 N.pl3   1  ZINC000465642058   -0.4700
     19 C19        -8.3052    1.0176   56.0159 C.2     1  ZINC000465642058    0.0600
     20 C20        -9.5149    0.4886   56.3127 C.2     1  ZINC000465642058   -0.2600
     21 C21       -11.0828   -2.7750   53.6332 C.3     1  ZINC000465642058    0.1700
     22 C22       -12.3371   -2.5881   52.8191 C.ar    1  ZINC000465642058   -0.1100
     23 C23       -13.4913   -3.2673   53.1620 C.ar    1  ZINC000465642058   -0.0900
     24 C24       -14.6418   -3.0958   52.4152 C.ar    1  ZINC000465642058   -0.1200
     25 C25       -14.6384   -2.2450   51.3258 C.ar    1  ZINC000465642058   -0.1200
     26 C26       -13.4845   -1.5651   50.9834 C.ar    1  ZINC000465642058   -0.1300
     27 C27       -12.3351   -1.7332   51.7328 C.ar    1  ZINC000465642058   -0.1100
     28 O28        -9.1288   -0.4949   62.1981 O.3     1  ZINC000465642058   -0.3000
     29 C29        -9.5256    0.6871   62.9138 C.3     1  ZINC000465642058    0.0800
     30 H30        -9.2818    1.5837   62.3440 H       1  ZINC000465642058    0.0900
     31 C31        -8.8692    0.7302   64.2953 C.3     1  ZINC000465642058   -0.1500
     32 C32       -11.0581    0.5151   63.0359 C.3     1  ZINC000465642058   -0.1100
     33 H33       -15.1595   -3.7763   58.3436 H       1  ZINC000465642058    0.0700
     34 H34       -16.3126   -3.9627   59.6866 H       1  ZINC000465642058    0.0800
     35 H35       -16.2184   -2.4210   58.8021 H       1  ZINC000465642058    0.0700
     36 H36       -15.0670   -2.2622   60.9925 H       1  ZINC000465642058    0.0600
     37 H37       -14.0080   -3.6176   60.5340 H       1  ZINC000465642058    0.0600
     38 H38       -13.4807   -0.2696   61.5647 H       1  ZINC000465642058    0.1300
     39 H39        -9.2318   -2.1904   59.9659 H       1  ZINC000465642058    0.1400
     40 H40       -10.4254   -3.6217   58.5170 H       1  ZINC000465642058    0.0700
     41 H41       -12.2048   -3.6622   58.5281 H       1  ZINC000465642058    0.0800
     42 H42       -11.4744   -1.2633   57.2996 H       1  ZINC000465642058    0.4000
     43 H43       -11.9111   -0.3152   54.0802 H       1  ZINC000465642058    0.1000
     44 H44       -12.0410   -0.4073   55.8531 H       1  ZINC000465642058    0.0900
     45 H45        -7.3351    1.1827   54.1900 H       1  ZINC000465642058    0.4400
     46 H46        -7.6172    1.4666   56.7169 H       1  ZINC000465642058    0.1800
     47 H47        -9.9626    0.4377   57.2943 H       1  ZINC000465642058    0.1500
     48 H48       -10.2364   -2.3400   53.1017 H       1  ZINC000465642058    0.0900
     49 H49       -10.9059   -3.8392   53.7889 H       1  ZINC000465642058    0.0900
     50 H50       -13.4940   -3.9320   54.0131 H       1  ZINC000465642058    0.1300
     51 H51       -15.5433   -3.6270   52.6827 H       1  ZINC000465642058    0.1200
     52 H52       -15.5371   -2.1115   50.7419 H       1  ZINC000465642058    0.1200
     53 H53       -13.4816   -0.9005   50.1321 H       1  ZINC000465642058    0.1200
     54 H54       -11.4336   -1.2021   51.4653 H       1  ZINC000465642058    0.1200
     55 H55        -7.7856    0.7605   64.1818 H       1  ZINC000465642058    0.0700
     56 H56        -9.2038    1.6198   64.8289 H       1  ZINC000465642058    0.0800
     57 H57        -9.1508   -0.1592   64.8591 H       1  ZINC000465642058    0.0700
     58 H58       -11.5664    1.4749   62.9440 H       1  ZINC000465642058    0.0900
     59 H59       -11.3216    0.0247   63.9730 H       1  ZINC000465642058    0.1000
@<TRIPOS>BOND
     1     1     2    1
     2     1    33    1
     3     1    34    1
     4     1    35    1
     5     2     3    1
     6     2    36    1
     7     2    37    1
     8     3     4    1
     9     4     9   ar
    10     4     5   ar
    11     5     6   ar
    12     5    38    1
    13     6    32    1
    14     6     7   ar
    15     7     8   ar
    16     7    28    1
    17     8     9   ar
    18     8    39    1
    19     9    10    1
    20    10    11    1
    21    10    40    1
    22    10    41    1
    23    11    12   am
    24    11    42    1
    25    12    13    2
    26    12    14   am
    27    14    15    1
    28    14    21    1
    29    15    16    1
    30    15    43    1
    31    15    44    1
    32    16    20    1
    33    16    17    2
    34    17    18    1
    35    18    19    1
    36    18    45    1
    37    19    20    2
    38    19    46    1
    39    20    47    1
    40    21    22    1
    41    21    48    1
    42    21    49    1
    43    22    27   ar
    44    22    23   ar
    45    23    24   ar
    46    23    50    1
    47    24    25   ar
    48    24    51    1
    49    25    26   ar
    50    25    52    1
    51    26    27   ar
    52    26    53    1
    53    27    54    1
    54    28    29    1
    55    29    30    1
    56    29    31    1
    57    29    32    1
    58    31    55    1
    59    31    56    1
    60    31    57    1
    61    32    58    1
    62    32    59    1
@<TRIPOS>SUBSTRUCTURE
     1 ZINC000465642058        1 TEMP              0 ****  ****    0 ROOT


##########                                Name:    ZINC000432253027
##########                DOCK_Rotatable_Bonds:                   8
##########                         Heavy_Atoms:                  26
##########                    Molecular_Weight:             401.436
##########                DOCK_Rotatable_Bonds:                   8
##########                       Formal_Charge:         1.19209e-07
##########                     HBond_Acceptors:                  11
##########                        HBond_Donors:                   0
##########                         Heavy_Atoms:                  26
##########                          Grid_Score:          -38.254147
##########                     Grid_vdw_energy:          -37.267212
##########                      Grid_es_energy:           -0.986935
##########           Internal_energy_repulsive:           12.691937

@<TRIPOS>MOLECULE
ZINC000432253027
 40 42 1 0 0
SMALL
USER_CHARGES


@<TRIPOS>ATOM
      1 C1         -9.6178    0.5552   57.3490 C.3     1  ZINC000432253027    0.0300
      2 O2        -10.1198   -0.7494   57.0519 O.3     1  ZINC000432253027   -0.3100
      3 C3         -9.9979   -1.6926   58.0216 C.ar    1  ZINC000432253027    0.1500
      4 C4         -9.3143   -1.4031   59.1911 C.ar    1  ZINC000432253027   -0.2100
      5 C5         -9.1904   -2.3639   60.1772 C.ar    1  ZINC000432253027   -0.0600
      6 C6         -9.7471   -3.6190   60.0044 C.ar    1  ZINC000432253027   -0.1600
      7 C7        -10.4311   -3.9228   58.8453 C.ar    1  ZINC000432253027   -0.0300
      8 C8        -10.5677   -2.9597   57.8456 C.ar    1  ZINC000432253027   -0.0600
      9 C9        -11.2990   -3.2788   56.6017 C.2     1  ZINC000432253027    0.1200
     10 N10       -10.7849   -3.2924   55.4050 N.2     1  ZINC000432253027   -0.4600
     11 C11       -11.5895   -3.6010   54.4134 C.2     1  ZINC000432253027    0.0800
     12 C12       -11.1150   -3.6515   52.9839 C.3     1  ZINC000432253027   -0.0200
     13 S13       -11.6423   -2.1472   52.1181 S.3     1  ZINC000432253027   -0.1700
     14 C14       -10.7051   -0.8420   52.9599 C.3     1  ZINC000432253027   -0.0300
     15 C15        -9.3076   -0.7854   52.3986 C.2     1  ZINC000432253027    0.2100
     16 N16        -8.6984   -1.7262   51.7192 N.2     1  ZINC000432253027   -0.2700
     17 N17        -7.5210   -1.2996   51.4165 N.2     1  ZINC000432253027   -0.0500
     18 N18        -7.3633   -0.1109   51.8850 N.2     1  ZINC000432253027   -0.0700
     19 N19        -8.4450    0.2436   52.4926 N.pl3   1  ZINC000432253027   -0.3100
     20 C20        -8.6854    1.5219   53.1665 C.3     1  ZINC000432253027    0.0700
     21 C21        -9.2769    2.5205   52.1697 C.3     1  ZINC000432253027    0.4300
     22 F22       -10.4648    2.0039   51.6412 F       1  ZINC000432253027   -0.1500
     23 F23        -9.5437    3.7288   52.8226 F       1  ZINC000432253027   -0.1700
     24 F24        -8.3632    2.7422   51.1337 F       1  ZINC000432253027   -0.1700
     25 C25       -12.8550   -3.8679   54.7510 C.2     1  ZINC000432253027   -0.2500
     26 S26       -13.0042   -3.7095   56.5000 S.3     1  ZINC000432253027    0.1600
     27 H27        -9.7777    1.2098   56.4922 H       1  ZINC000432253027    0.1000
     28 H28       -10.1417    0.9573   58.2162 H       1  ZINC000432253027    0.0600
     29 H29        -8.5513    0.4935   57.5652 H       1  ZINC000432253027    0.0600
     30 H30        -8.8774   -0.4256   59.3325 H       1  ZINC000432253027    0.1400
     31 H31        -8.6560   -2.1340   61.0871 H       1  ZINC000432253027    0.1300
     32 H32        -9.6457   -4.3637   60.7800 H       1  ZINC000432253027    0.1300
     33 H33       -10.8639   -4.9036   58.7141 H       1  ZINC000432253027    0.1400
     34 H34       -10.0273   -3.7196   52.9644 H       1  ZINC000432253027    0.1000
     35 H35       -11.5425   -4.5239   52.4897 H       1  ZINC000432253027    0.1100
     36 H36       -11.1983    0.1175   52.8043 H       1  ZINC000432253027    0.1100
     37 H37       -10.6594   -1.0582   54.0272 H       1  ZINC000432253027    0.1300
     38 H38        -9.3843    1.3729   53.9896 H       1  ZINC000432253027    0.1500
     39 H39        -7.7441    1.9105   53.5549 H       1  ZINC000432253027    0.1600
     40 H40       -13.6484   -4.1379   54.0697 H       1  ZINC000432253027    0.1800
@<TRIPOS>BOND
     1     1     2    1
     2     1    27    1
     3     1    28    1
     4     1    29    1
     5     2     3    1
     6     3     8   ar
     7     3     4   ar
     8     4     5   ar
     9     4    30    1
    10     5     6   ar
    11     5    31    1
    12     6     7   ar
    13     6    32    1
    14     7     8   ar
    15     7    33    1
    16     8     9    1
    17     9    26    1
    18     9    10    2
    19    10    11    1
    20    11    12    1
    21    11    25    2
    22    12    13    1
    23    12    34    1
    24    12    35    1
    25    13    14    1
    26    14    15    1
    27    14    36    1
    28    14    37    1
    29    15    19    1
    30    15    16    2
    31    16    17    1
    32    17    18    2
    33    18    19    1
    34    19    20    1
    35    20    21    1
    36    20    38    1
    37    20    39    1
    38    21    22    1
    39    21    23    1
    40    21    24    1
    41    25    26    1
    42    25    40    1
@<TRIPOS>SUBSTRUCTURE
     1 ZINC000432253027        1 TEMP              0 ****  ****    0 ROOT


##########                                Name:    ZINC000428266315
##########                DOCK_Rotatable_Bonds:                  10
##########                         Heavy_Atoms:                  30
##########                    Molecular_Weight:             423.438
##########                DOCK_Rotatable_Bonds:                  10
##########                       Formal_Charge:          0.00999977
##########                     HBond_Acceptors:                  10
##########                        HBond_Donors:                   0
##########                         Heavy_Atoms:                  30
##########                          Grid_Score:          -38.209126
##########                     Grid_vdw_energy:          -38.929119
##########                      Grid_es_energy:            0.719994
##########           Internal_energy_repulsive:            9.991720

@<TRIPOS>MOLECULE
ZINC000428266315
 54 56 1 0 0
SMALL
USER_CHARGES


@<TRIPOS>ATOM
      1 C1         -4.2571    1.3360   50.3465 C.3     1  ZINC000428266315   -0.1500
      2 C2         -5.1230    2.0731   51.3702 C.3     1  ZINC000428266315    0.0600
      3 O3         -6.2860    1.2944   51.6589 O.3     1  ZINC000428266315   -0.3700
      4 C4         -7.1249    1.8558   52.6703 C.3     1  ZINC000428266315    0.1800
      5 H5         -6.5314    2.0637   53.5607 H       1  ZINC000428266315    0.0900
      6 C6         -7.7443    3.1566   52.1552 C.3     1  ZINC000428266315   -0.1700
      7 C7         -8.2203    0.8793   53.0135 C.2     1  ZINC000428266315    0.1700
      8 N8         -8.8709    0.8171   54.1365 N.2     1  ZINC000428266315   -0.3500
      9 O9         -9.6894   -0.0773   54.0986 O.3     1  ZINC000428266315    0.0800
     10 C10        -9.6370   -0.6891   52.9116 C.2     1  ZINC000428266315    0.1900
     11 C11       -10.4872   -1.8492   52.4616 C.3     1  ZINC000428266315    0.1500
     12 N12       -11.8895   -1.5961   52.8188 N.3     1  ZINC000428266315   -0.5300
     13 C13       -12.3816   -0.3674   52.1815 C.3     1  ZINC000428266315    0.0200
     14 C14       -12.7367   -2.7449   52.4716 C.3     1  ZINC000428266315    0.1400
     15 C15       -13.2920   -3.3582   53.7312 C.2     1  ZINC000428266315   -0.2300
     16 C16       -12.5956   -4.0808   54.6389 C.2     1  ZINC000428266315    0.0800
     17 N17       -13.4508   -4.4481   55.6160 N.pl3   1  ZINC000428266315   -0.3700
     18 C18       -13.1166   -5.2433   56.8001 C.3     1  ZINC000428266315    0.1700
     19 C19       -12.2203   -4.4407   57.7075 C.ar    1  ZINC000428266315   -0.0800
     20 C20       -12.6609   -3.2378   58.2267 C.ar    1  ZINC000428266315   -0.1000
     21 C21       -11.8387   -2.5016   59.0591 C.ar    1  ZINC000428266315   -0.0700
     22 C22       -10.5760   -2.9686   59.3727 C.ar    1  ZINC000428266315   -0.1700
     23 C23        -9.6795   -2.1658   60.2798 C.3     1  ZINC000428266315    0.5100
     24 F24       -10.3288   -0.9831   60.6496 F       1  ZINC000428266315   -0.1700
     25 F25        -9.3847   -2.9135   61.4249 F       1  ZINC000428266315   -0.1800
     26 F26        -8.4928   -1.8556   59.6070 F       1  ZINC000428266315   -0.1800
     27 C27       -10.1359   -4.1723   58.8546 C.ar    1  ZINC000428266315   -0.0700
     28 C28       -10.9596   -4.9103   58.0254 C.ar    1  ZINC000428266315   -0.0800
     29 N29       -14.7148   -3.9343   55.2982 N.2     1  ZINC000428266315   -0.2900
     30 C30       -14.6170   -3.2762   54.1716 C.2     1  ZINC000428266315    0.0600
     31 N31        -8.7079   -0.0840   52.2116 N.2     1  ZINC000428266315   -0.4600
     32 H32        -3.3700    1.9300   50.1262 H       1  ZINC000428266315    0.0700
     33 H33        -3.9562    0.3706   50.7530 H       1  ZINC000428266315    0.0600
     34 H34        -4.8282    1.1827   49.4308 H       1  ZINC000428266315    0.0600
     35 H35        -4.5518    2.2264   52.2859 H       1  ZINC000428266315    0.0500
     36 H36        -5.4239    3.0386   50.9636 H       1  ZINC000428266315    0.0500
     37 H37        -8.3377    2.9487   51.2649 H       1  ZINC000428266315    0.0700
     38 H38        -8.3842    3.5848   52.9266 H       1  ZINC000428266315    0.0700
     39 H39        -6.9519    3.8628   51.9070 H       1  ZINC000428266315    0.0700
     40 H40       -10.4026   -1.9641   51.3810 H       1  ZINC000428266315    0.0800
     41 H41       -10.1464   -2.7611   52.9517 H       1  ZINC000428266315    0.1200
     42 H42       -12.3090   -0.4658   51.0982 H       1  ZINC000428266315    0.0400
     43 H43       -13.4219   -0.2039   52.4625 H       1  ZINC000428266315    0.0800
     44 H44       -11.7789    0.4790   52.5105 H       1  ZINC000428266315    0.0600
     45 H45       -13.5580   -2.4120   51.8369 H       1  ZINC000428266315    0.0500
     46 H46       -12.1424   -3.4865   51.9378 H       1  ZINC000428266315    0.0900
     47 H47       -11.5436   -4.3207   54.5901 H       1  ZINC000428266315    0.1700
     48 H48       -14.0313   -5.5054   57.3318 H       1  ZINC000428266315    0.1000
     49 H49       -12.6014   -6.1534   56.4928 H       1  ZINC000428266315    0.1100
     50 H50       -13.6474   -2.8729   57.9816 H       1  ZINC000428266315    0.1300
     51 H51       -12.1827   -1.5614   59.4642 H       1  ZINC000428266315    0.1400
     52 H52        -9.1495   -4.5374   59.1000 H       1  ZINC000428266315    0.1400
     53 H53       -10.6157   -5.8508   57.6206 H       1  ZINC000428266315    0.1400
     54 H54       -15.4221   -2.7647   53.6651 H       1  ZINC000428266315    0.1800
@<TRIPOS>BOND
     1     1     2    1
     2     1    32    1
     3     1    33    1
     4     1    34    1
     5     2     3    1
     6     2    35    1
     7     2    36    1
     8     3     4    1
     9     4     5    1
    10     4     6    1
    11     4     7    1
    12     6    37    1
    13     6    38    1
    14     6    39    1
    15     7    31    1
    16     7     8    2
    17     8     9    1
    18     9    10    1
    19    10    11    1
    20    10    31    2
    21    11    12    1
    22    11    40    1
    23    11    41    1
    24    12    13    1
    25    12    14    1
    26    13    42    1
    27    13    43    1
    28    13    44    1
    29    14    15    1
    30    14    45    1
    31    14    46    1
    32    15    30    1
    33    15    16    2
    34    16    17    1
    35    16    47    1
    36    17    18    1
    37    17    29    1
    38    18    19    1
    39    18    48    1
    40    18    49    1
    41    19    28   ar
    42    19    20   ar
    43    20    21   ar
    44    20    50    1
    45    21    22   ar
    46    21    51    1
    47    22    23    1
    48    22    27   ar
    49    23    24    1
    50    23    25    1
    51    23    26    1
    52    27    28   ar
    53    27    52    1
    54    28    53    1
    55    29    30    2
    56    30    54    1
@<TRIPOS>SUBSTRUCTURE
     1 ZINC000428266315        1 TEMP              0 ****  ****    0 ROOT


##########                                Name:    ZINC000110375116
##########                DOCK_Rotatable_Bonds:                  10
##########                         Heavy_Atoms:                  27
##########                    Molecular_Weight:             396.511
##########                DOCK_Rotatable_Bonds:                  10
##########                       Formal_Charge:        -2.23517e-07
##########                     HBond_Acceptors:                   9
##########                        HBond_Donors:                   0
##########                         Heavy_Atoms:                  27
##########                          Grid_Score:          -38.122093
##########                     Grid_vdw_energy:          -37.565784
##########                      Grid_es_energy:           -0.556308
##########           Internal_energy_repulsive:           37.403072

@<TRIPOS>MOLECULE
ZINC000110375116
 55 56 1 0 0
SMALL
USER_CHARGES


@<TRIPOS>ATOM
      1 C1         -8.0167    2.9547   52.4222 C.3     1  ZINC000110375116   -0.1700
      2 C2         -8.8116    1.6530   52.5437 C.3     1  ZINC000110375116    0.1000
      3 N3         -8.0033    0.5386   52.0425 N.am    1  ZINC000110375116   -0.6200
      4 C4         -6.6622    0.7885   51.5088 C.3     1  ZINC000110375116    0.1100
      5 C5         -6.7432    0.9741   49.9922 C.3     1  ZINC000110375116   -0.1700
      6 C6         -8.4936   -0.7164   52.0726 C.2     1  ZINC000110375116    0.5100
      7 O7         -7.8239   -1.6391   51.6591 O.2     1  ZINC000110375116   -0.5300
      8 C8         -9.8740   -0.9732   52.6200 C.3     1  ZINC000110375116   -0.1400
      9 C9        -10.4346   -2.2583   52.0074 C.3     1  ZINC000110375116   -0.0900
     10 C10       -11.7274   -2.6452   52.7285 C.3     1  ZINC000110375116   -0.1400
     11 C11       -11.3924   -3.3837   53.9987 C.2     1  ZINC000110375116    0.5200
     12 O12       -10.2658   -3.7932   54.1829 O.2     1  ZINC000110375116   -0.5300
     13 N13       -12.3449   -3.5893   54.9299 N.am    1  ZINC000110375116   -0.6200
     14 C14       -12.0314   -4.3040   56.1752 C.3     1  ZINC000110375116    0.0900
     15 C15       -12.4245   -3.4160   57.3623 C.3     1  ZINC000110375116    0.1000
     16 N16       -13.7948   -2.9289   57.1508 N.am    1  ZINC000110375116   -1.0000
     17 S17       -14.9648   -3.1806   58.2955 S.o2    1  ZINC000110375116    2.7000
     18 O18       -16.1128   -2.4653   57.8599 O.2     1  ZINC000110375116   -0.9400
     19 O19       -14.9731   -4.5766   58.5607 O.2     1  ZINC000110375116   -0.9500
     20 C20       -14.4223   -2.3960   59.7770 C.ar    1  ZINC000110375116   -0.7400
     21 C21       -14.4521   -3.0777   60.9837 C.ar    1  ZINC000110375116    0.0200
     22 C22       -14.0150   -2.4206   62.1240 C.ar    1  ZINC000110375116   -0.1900
     23 C23       -13.5674   -1.1174   62.0203 C.ar    1  ZINC000110375116    0.1500
     24 N24       -13.5532   -0.4997   60.8552 N.ar    1  ZINC000110375116   -0.4900
     25 C25       -13.9562   -1.0949   59.7498 C.ar    1  ZINC000110375116    0.2000
     26 C26       -14.1083   -2.2142   55.9056 C.3     1  ZINC000110375116    0.1000
     27 C27       -13.7139   -3.0973   54.7210 C.3     1  ZINC000110375116    0.1000
     28 H28        -8.6181    3.7838   52.7950 H       1  ZINC000110375116    0.0700
     29 H29        -7.1012    2.8773   53.0086 H       1  ZINC000110375116    0.0600
     30 H30        -7.7645    3.1302   51.3764 H       1  ZINC000110375116    0.0600
     31 H31        -9.0637    1.4775   53.5895 H       1  ZINC000110375116    0.0800
     32 H32        -9.7271    1.7304   51.9572 H       1  ZINC000110375116    0.0800
     33 H33        -6.2521    1.6902   51.9637 H       1  ZINC000110375116    0.0800
     34 H34        -6.0164   -0.0594   51.7371 H       1  ZINC000110375116    0.0800
     35 H35        -5.7454    1.1600   49.5950 H       1  ZINC000110375116    0.0700
     36 H36        -7.1531    0.0724   49.5373 H       1  ZINC000110375116    0.0500
     37 H37        -7.3889    1.8220   49.7640 H       1  ZINC000110375116    0.0600
     38 H38        -9.8212   -1.0802   53.7034 H       1  ZINC000110375116    0.0900
     39 H39       -10.5259   -0.1365   52.3688 H       1  ZINC000110375116    0.0900
     40 H40       -10.6430   -2.0958   50.9500 H       1  ZINC000110375116    0.0800
     41 H41        -9.7047   -3.0605   52.1149 H       1  ZINC000110375116    0.0800
     42 H42       -12.2922   -1.7448   52.9699 H       1  ZINC000110375116    0.1000
     43 H43       -12.3259   -3.2871   52.0821 H       1  ZINC000110375116    0.1000
     44 H44       -12.5947   -5.2364   56.2135 H       1  ZINC000110375116    0.0800
     45 H45       -10.9632   -4.5172   56.2157 H       1  ZINC000110375116    0.1000
     46 H46       -12.3807   -3.9965   58.2837 H       1  ZINC000110375116    0.1100
     47 H47       -11.7413   -2.5692   57.4277 H       1  ZINC000110375116    0.0800
     48 H48       -14.8075   -4.0963   61.0346 H       1  ZINC000110375116    0.1500
     49 H49       -14.0245   -2.9210   63.0810 H       1  ZINC000110375116    0.1500
     50 H50       -13.2257   -0.5985   62.9037 H       1  ZINC000110375116    0.1700
     51 H51       -13.9300   -0.5570   58.8137 H       1  ZINC000110375116    0.1700
     52 H52       -15.1765   -2.0010   55.8650 H       1  ZINC000110375116    0.1100
     53 H53       -13.5450   -1.2818   55.8673 H       1  ZINC000110375116    0.0800
     54 H54       -13.7581   -2.5155   53.8002 H       1  ZINC000110375116    0.1100
     55 H55       -14.3954   -3.9453   54.6539 H       1  ZINC000110375116    0.0800
@<TRIPOS>BOND
     1     1     2    1
     2     1    28    1
     3     1    29    1
     4     1    30    1
     5     2     3    1
     6     2    31    1
     7     2    32    1
     8     3     4    1
     9     3     6   am
    10     4     5    1
    11     4    33    1
    12     4    34    1
    13     5    35    1
    14     5    36    1
    15     5    37    1
    16     6     7    2
    17     6     8    1
    18     8     9    1
    19     8    38    1
    20     8    39    1
    21     9    10    1
    22     9    40    1
    23     9    41    1
    24    10    11    1
    25    10    42    1
    26    10    43    1
    27    11    12    2
    28    11    13   am
    29    13    27    1
    30    13    14    1
    31    14    15    1
    32    14    44    1
    33    14    45    1
    34    15    16    1
    35    15    46    1
    36    15    47    1
    37    16    17   am
    38    16    26    1
    39    17    18    2
    40    17    19    2
    41    17    20    1
    42    20    25   ar
    43    20    21   ar
    44    21    22   ar
    45    21    48    1
    46    22    23   ar
    47    22    49    1
    48    23    24   ar
    49    23    50    1
    50    24    25   ar
    51    25    51    1
    52    26    27    1
    53    26    52    1
    54    26    53    1
    55    27    54    1
    56    27    55    1
@<TRIPOS>SUBSTRUCTURE
     1 ZINC000110375116        1 TEMP              0 ****  ****    0 ROOT


##########                                Name:     oleObject27.pdb
##########                DOCK_Rotatable_Bonds:                   9
##########                         Heavy_Atoms:                  35
##########                    Molecular_Weight:             513.466
##########                DOCK_Rotatable_Bonds:                   9
##########                       Formal_Charge:         0.000199873
##########                     HBond_Acceptors:                   8
##########                        HBond_Donors:                   1
##########                         Heavy_Atoms:                  35
##########                          Grid_Score:          -38.107613
##########                     Grid_vdw_energy:          -37.838963
##########                      Grid_es_energy:           -0.268651
##########           Internal_energy_repulsive:           19.143200

@<TRIPOS>MOLECULE
oleObject27.pdb
 65 68 1 0 0
SMALL
NO_CHARGES


@<TRIPOS>ATOM
      1 C          -9.6849   -0.1734   61.9389 C.ar    1  UNL        -0.0620
      2 C          -9.2406   -1.4679   61.6333 C.ar    1  UNL        -0.0590
      3 C          -9.6312   -2.0990   60.4362 C.ar    1  UNL        -0.0456
      4 C         -10.4767   -1.4163   59.5266 C.ar    1  UNL        -0.0187
      5 C         -10.9248   -0.1175   59.8535 C.ar    1  UNL        -0.0565
      6 C         -10.5308    0.5011   61.0491 C.ar    1  UNL        -0.0619
      7 C         -10.9220   -2.0725   58.2100 C.3     1  UNL         0.0921
      8 C         -12.2866   -2.7593   58.3243 C.ar    1  UNL         0.0681
      9 C         -12.5000   -4.0911   57.8885 C.ar    1  UNL        -0.0272
     10 C         -13.7902   -4.6384   58.0205 C.ar    1  UNL        -0.0559
     11 C         -14.8147   -3.8504   58.5649 C.ar    1  UNL        -0.0435
     12 C         -14.5172   -2.5361   58.9549 C.ar    1  UNL         0.0272
     13 N         -13.2867   -2.0035   58.8333 N.ar    1  UNL        -0.2587
     14 C         -11.3892   -4.9360   57.2751 C.3     1  UNL        -0.0379
     15 N         -10.9144   -1.1396   57.0739 N.am    1  UNL        -0.2865
     16 C         -11.4169   -1.4421   55.8212 C.2     1  UNL         0.3014
     17 O         -11.9069   -2.5306   55.5703 O.2     1  UNL        -0.2541
     18 N         -11.3188   -0.4234   54.8715 N.am    1  UNL        -0.2833
     19 C         -10.7142    0.9001   55.1849 C.3     1  UNL         0.0284
     20 C         -11.0124    2.0155   54.1535 C.3     1  UNL         0.0142
     21 N         -10.8277    1.5635   52.7635 N.4     1  UNL        -0.2979
     22 C         -11.7272    0.4236   52.4980 C.3     1  UNL         0.0142
     23 C         -11.4454   -0.7733   53.4353 C.3     1  UNL         0.0284
     24 C          -9.4038    1.3595   52.4033 C.3     1  UNL         0.0223
     25 C          -8.5755    2.6597   52.4356 C.3     1  UNL         0.0661
     26 O          -7.4923    2.5090   51.5013 O.3     1  UNL        -0.3432
     27 C          -6.1850    2.8559   51.7835 C.ar    1  UNL         0.0937
     28 C          -5.8610    4.0094   52.5294 C.ar    1  UNL        -0.0288
     29 C          -4.5180    4.3257   52.7941 C.ar    1  UNL        -0.0408
     30 C          -3.4925    3.4945   52.3169 C.ar    1  UNL         0.0422
     31 C          -3.8065    2.3454   51.5746 C.ar    1  UNL        -0.0221
     32 C          -5.1485    2.0264   51.3085 C.ar    1  UNL         0.0723
     33 CL         -5.5070    0.5837   50.3779 Cl      1  UNL        -0.0814
     34 CL         -1.8200    3.8915   52.6484 Cl      1  UNL        -0.0843
     35 C          -9.1326   -3.5138   60.1608 C.3     1  UNL        -0.0394
     36 H          -9.3785    0.3029   62.8659 H       1  UNL         0.0623
     37 H          -8.5903   -1.9837   62.3342 H       1  UNL         0.0626
     38 H         -11.5894    0.4189   59.1827 H       1  UNL         0.0627
     39 H         -10.8831    1.5009   61.2854 H       1  UNL         0.0623
     40 H         -10.1772   -2.8372   57.9713 H       1  UNL         0.0625
     41 H         -13.9978   -5.6563   57.7025 H       1  UNL         0.0627
     42 H         -15.8194   -4.2469   58.6771 H       1  UNL         0.0639
     43 H         -15.2856   -1.8897   59.3771 H       1  UNL         0.0840
     44 H         -10.9096   -4.4119   56.4388 H       1  UNL         0.0280
     45 H         -11.7723   -5.8879   56.8866 H       1  UNL         0.0280
     46 H         -10.6168   -5.1708   58.0178 H       1  UNL         0.0280
     47 H         -10.4783   -0.2378   57.2054 H       1  UNL         0.1521
     48 H          -9.6275    0.7662   55.2594 H       1  UNL         0.0484
     49 H         -11.0737    1.2519   56.1597 H       1  UNL         0.0484
     50 H         -10.3759    2.8854   54.3606 H       1  UNL         0.0447
     51 H         -12.0536    2.3369   54.2874 H       1  UNL         0.0447
     52 H         -11.6575    0.0979   51.4536 H       1  UNL         0.0447
     53 H         -12.7640    0.7460   52.6603 H       1  UNL         0.0447
     54 H         -10.5131   -1.2598   53.1223 H       1  UNL         0.0484
     55 H         -12.2550   -1.5037   53.3096 H       1  UNL         0.0484
     56 H          -9.3195    0.9119   51.4050 H       1  UNL         0.0455
     57 H          -8.9520    0.6572   53.1157 H       1  UNL         0.0455
     58 H          -8.1858    2.8207   53.4489 H       1  UNL         0.0586
     59 H          -9.2010    3.5138   52.1490 H       1  UNL         0.0586
     60 H          -6.6375    4.6657   52.9085 H       1  UNL         0.0652
     61 H          -4.2739    5.2148   53.3687 H       1  UNL         0.0639
     62 H          -3.0121    1.7027   51.2058 H       1  UNL         0.0655
     63 H          -8.5760   -3.9213   61.0138 H       1  UNL         0.0280
     64 H          -8.4614   -3.5333   59.2932 H       1  UNL         0.0280
     65 H          -9.9683   -4.1965   59.9635 H       1  UNL         0.0280
@<TRIPOS>BOND
     1     1     2   ar
     2     1     6   ar
     3     1    36    1
     4     2     3   ar
     5     2    37    1
     6     3     4   ar
     7     3    35    1
     8     4     5   ar
     9     4     7    1
    10     5     6   ar
    11     5    38    1
    12     6    39    1
    13     7     8    1
    14     7    15    1
    15     7    40    1
    16     8     9   ar
    17     8    13   ar
    18     9    10   ar
    19     9    14    1
    20    10    11   ar
    21    10    41    1
    22    11    12   ar
    23    11    42    1
    24    12    13   ar
    25    12    43    1
    26    14    44    1
    27    14    45    1
    28    14    46    1
    29    15    16   am
    30    15    47    1
    31    16    17    2
    32    16    18   am
    33    18    19    1
    34    18    23    1
    35    19    20    1
    36    19    48    1
    37    19    49    1
    38    20    21    1
    39    20    50    1
    40    20    51    1
    41    21    22    1
    42    21    24    1
    43    22    23    1
    44    22    52    1
    45    22    53    1
    46    23    54    1
    47    23    55    1
    48    24    25    1
    49    24    56    1
    50    24    57    1
    51    25    26    1
    52    25    58    1
    53    25    59    1
    54    26    27    1
    55    27    28   ar
    56    27    32   ar
    57    28    29   ar
    58    28    60    1
    59    29    30   ar
    60    29    61    1
    61    30    31   ar
    62    30    34    1
    63    31    32   ar
    64    31    62    1
    65    32    33    1
    66    35    63    1
    67    35    64    1
    68    35    65    1
@<TRIPOS>SUBSTRUCTURE
     1 UNL         1 TEMP              0 ****  ****    0 ROOT


##########                                Name:    ZINC000572257265
##########                DOCK_Rotatable_Bonds:                  11
##########                         Heavy_Atoms:                  24
##########                    Molecular_Weight:             393.509
##########                DOCK_Rotatable_Bonds:                  11
##########                       Formal_Charge:          -0.0100002
##########                     HBond_Acceptors:                  11
##########                        HBond_Donors:                   3
##########                         Heavy_Atoms:                  24
##########                          Grid_Score:          -38.069756
##########                     Grid_vdw_energy:          -38.645554
##########                      Grid_es_energy:            0.575797
##########           Internal_energy_repulsive:           11.973779

@<TRIPOS>MOLECULE
ZINC000572257265
 43 43 1 0 0
SMALL
USER_CHARGES


@<TRIPOS>ATOM
      1 C1        -10.0612   -0.0204   53.3288 C.3     1  ZINC000572257265   -0.1300
      2 S2        -11.0667   -0.9040   54.5531 S.3     1  ZINC000572257265   -0.2200
      3 C3        -10.8306   -2.6436   54.0961 C.3     1  ZINC000572257265   -0.1300
      4 C4        -12.1104   -3.1799   53.4517 C.3     1  ZINC000572257265    0.1500
      5 C5        -12.5849   -2.2052   52.3719 C.3     1  ZINC000572257265   -0.1500
      6 O6        -11.8483   -4.4544   52.8610 O.3     1  ZINC000572257265   -0.5400
      7 C7        -13.1964   -3.3263   54.5195 C.3     1  ZINC000572257265    0.0900
      8 N8        -13.2735   -4.7247   54.9491 N.am    1  ZINC000572257265   -1.1100
      9 S9        -13.7109   -5.0904   56.5039 S.o2    1  ZINC000572257265    2.6900
     10 O10       -14.9439   -4.4249   56.7409 O.2     1  ZINC000572257265   -0.9400
     11 O11       -13.5452   -6.4944   56.6476 O.2     1  ZINC000572257265   -0.9500
     12 C12       -12.5264   -4.3380   57.5694 C.ar    1  ZINC000572257265   -0.6300
     13 C13       -11.2664   -4.8907   57.7021 C.ar    1  ZINC000572257265   -0.0400
     14 C14       -10.3371   -4.3004   58.5381 C.ar    1  ZINC000572257265   -0.0400
     15 C15       -10.6679   -3.1571   59.2413 C.ar    1  ZINC000572257265   -0.6300
     16 S16        -9.4836   -2.4050   60.3074 S.o2    1  ZINC000572257265    2.7000
     17 O17       -10.2220   -1.7632   61.3380 O.2     1  ZINC000572257265   -0.9400
     18 O18        -8.4897   -3.3886   60.5604 O.2     1  ZINC000572257265   -0.9400
     19 N19        -8.7419   -1.2017   59.4447 N.am    1  ZINC000572257265   -1.1200
     20 C20        -9.5336   -0.0956   58.9008 C.3     1  ZINC000572257265    0.2200
     21 C21        -8.8738    0.4342   57.6962 C.1     1  ZINC000572257265    0.1900
     22 N22        -8.3646    0.8430   56.7667 N.1     1  ZINC000572257265   -0.3900
     23 C23       -11.9275   -2.6036   59.1077 C.ar    1  ZINC000572257265   -0.0400
     24 C24       -12.8555   -3.1918   58.2687 C.ar    1  ZINC000572257265   -0.0400
     25 H25       -10.4287   -0.2441   52.3273 H       1  ZINC000572257265    0.0800
     26 H26       -10.1287    1.0524   53.5094 H       1  ZINC000572257265    0.1000
     27 H27        -9.0222   -0.3386   53.4141 H       1  ZINC000572257265    0.0800
     28 H28       -10.0058   -2.7245   53.3882 H       1  ZINC000572257265    0.0900
     29 H29       -10.6018   -3.2258   54.9887 H       1  ZINC000572257265    0.0900
     30 H30       -11.8112   -2.1010   51.6113 H       1  ZINC000572257265    0.0800
     31 H31       -13.4967   -2.5873   51.9128 H       1  ZINC000572257265    0.0700
     32 H32       -12.7848   -1.2330   52.8225 H       1  ZINC000572257265    0.0800
     33 H33       -12.5848   -4.8069   52.3431 H       1  ZINC000572257265    0.3800
     34 H34       -12.9523   -2.6963   55.3748 H       1  ZINC000572257265    0.0900
     35 H35       -14.1569   -3.0201   54.1051 H       1  ZINC000572257265    0.0800
     36 H36       -13.0683   -5.4365   54.3228 H       1  ZINC000572257265    0.4300
     37 H37       -11.0080   -5.7839   57.1527 H       1  ZINC000572257265    0.1500
     38 H38        -9.3529   -4.7327   58.6422 H       1  ZINC000572257265    0.1500
     39 H39        -7.7832   -1.2293   59.2996 H       1  ZINC000572257265    0.4300
     40 H40       -10.5295   -0.4548   58.6413 H       1  ZINC000572257265    0.1100
     41 H41        -9.6153    0.6943   59.6474 H       1  ZINC000572257265    0.1300
     42 H42       -12.1857   -1.7102   59.6567 H       1  ZINC000572257265    0.1600
     43 H43       -13.8396   -2.7593   58.1643 H       1  ZINC000572257265    0.1500
@<TRIPOS>BOND
     1     1     2    1
     2     1    25    1
     3     1    26    1
     4     1    27    1
     5     2     3    1
     6     3     4    1
     7     3    28    1
     8     3    29    1
     9     4     5    1
    10     4     6    1
    11     4     7    1
    12     5    30    1
    13     5    31    1
    14     5    32    1
    15     6    33    1
    16     7     8    1
    17     7    34    1
    18     7    35    1
    19     8     9   am
    20     8    36    1
    21     9    10    2
    22     9    11    2
    23     9    12    1
    24    12    24   ar
    25    12    13   ar
    26    13    14   ar
    27    13    37    1
    28    14    15   ar
    29    14    38    1
    30    15    16    1
    31    15    23   ar
    32    16    17    2
    33    16    18    2
    34    16    19   am
    35    19    20    1
    36    19    39    1
    37    20    21    1
    38    20    40    1
    39    20    41    1
    40    21    22    3
    41    23    24   ar
    42    23    42    1
    43    24    43    1
@<TRIPOS>SUBSTRUCTURE
     1 ZINC000572257265        1 TEMP              0 ****  ****    0 ROOT


##########                                Name:    ZINC000859496582
##########                DOCK_Rotatable_Bonds:                  10
##########                         Heavy_Atoms:                  26
##########                    Molecular_Weight:             361.438
##########                DOCK_Rotatable_Bonds:                  10
##########                       Formal_Charge:           0.0100006
##########                     HBond_Acceptors:                   6
##########                        HBond_Donors:                   0
##########                         Heavy_Atoms:                  26
##########                          Grid_Score:          -38.067802
##########                     Grid_vdw_energy:          -36.368526
##########                      Grid_es_energy:           -1.699278
##########           Internal_energy_repulsive:           14.299587

@<TRIPOS>MOLECULE
ZINC000859496582
 53 54 1 0 0
SMALL
USER_CHARGES


@<TRIPOS>ATOM
      1 C1         -6.6215    0.5129   51.1499 C.3     1  ZINC000859496582    0.0300
      2 O2         -7.8705    0.3952   51.8810 O.3     1  ZINC000859496582   -0.3600
      3 C3         -8.4658   -0.8078   51.8805 C.2     1  ZINC000859496582    0.4600
      4 O4         -7.9597   -1.7322   51.2894 O.2     1  ZINC000859496582   -0.5100
      5 C5         -9.7656   -1.0057   52.6171 C.3     1  ZINC000859496582   -0.1100
      6 C6        -10.5586   -2.1359   51.9578 C.3     1  ZINC000859496582   -0.1100
      7 C7        -11.9126   -2.2830   52.6549 C.3     1  ZINC000859496582   -0.1200
      8 C8        -11.7486   -3.1399   53.9118 C.3     1  ZINC000859496582    0.0700
      9 O9        -11.2555   -2.3142   54.9996 O.3     1  ZINC000859496582   -0.3500
     10 C10       -11.2055   -2.8767   56.2173 C.2     1  ZINC000859496582    0.4700
     11 O11       -11.1211   -4.0771   56.3252 O.2     1  ZINC000859496582   -0.5000
     12 C12       -11.2548   -2.0108   57.4498 C.3     1  ZINC000859496582   -0.1000
     13 H13       -12.2090   -2.1537   57.9569 H       1  ZINC000859496582    0.1200
     14 C14       -11.1047   -0.5417   57.0483 C.3     1  ZINC000859496582   -0.1100
     15 C15       -11.1875    0.3409   58.2958 C.3     1  ZINC000859496582   -0.1300
     16 C16       -10.0428   -0.0194   59.2481 C.3     1  ZINC000859496582    0.1100
     17 N17       -10.0940   -1.4615   59.5247 N.am    1  ZINC000859496582   -0.6100
     18 C18       -10.1248   -1.9168   60.7928 C.2     1  ZINC000859496582    0.5700
     19 O19       -10.1672   -3.1122   61.0086 O.2     1  ZINC000859496582   -0.5300
     20 C20       -10.1072   -0.9621   61.9216 C.ar    1  ZINC000859496582   -0.1400
     21 C21       -11.2657   -0.2650   62.2684 C.ar    1  ZINC000859496582   -0.0900
     22 C22       -11.2425    0.6240   63.3230 C.ar    1  ZINC000859496582   -0.1200
     23 C23       -10.0741    0.8258   64.0362 C.ar    1  ZINC000859496582   -0.0600
     24 C24       -10.0561    1.7988   65.1867 C.3     1  ZINC000859496582   -0.1200
     25 C25        -8.9224    0.1377   63.6980 C.ar    1  ZINC000859496582   -0.1200
     26 C26        -8.9334   -0.7581   62.6489 C.ar    1  ZINC000859496582   -0.0600
     27 C27       -10.1115   -2.3983   58.3929 C.3     1  ZINC000859496582    0.1100
     28 H28        -6.7903    0.2701   50.1008 H       1  ZINC000859496582    0.0600
     29 H29        -6.2478    1.5336   51.2311 H       1  ZINC000859496582    0.1000
     30 H30        -5.8888   -0.1767   51.5690 H       1  ZINC000859496582    0.0600
     31 H31        -9.5589   -1.2646   53.6555 H       1  ZINC000859496582    0.1100
     32 H32       -10.3475   -0.0846   52.5812 H       1  ZINC000859496582    0.1100
     33 H33       -10.7154   -1.9033   50.9046 H       1  ZINC000859496582    0.0800
     34 H34       -10.0019   -3.0691   52.0448 H       1  ZINC000859496582    0.0800
     35 H35       -12.2870   -1.2979   52.9331 H       1  ZINC000859496582    0.0800
     36 H36       -12.6196   -2.7626   51.9779 H       1  ZINC000859496582    0.0800
     37 H37       -12.7124   -3.5675   54.1883 H       1  ZINC000859496582    0.0700
     38 H38       -11.0383   -3.9426   53.7141 H       1  ZINC000859496582    0.0700
     39 H39       -10.1399   -0.3946   56.5627 H       1  ZINC000859496582    0.0800
     40 H40       -11.9034   -0.2705   56.3580 H       1  ZINC000859496582    0.0800
     41 H41       -11.1039    1.3885   58.0065 H       1  ZINC000859496582    0.0900
     42 H42       -12.1420    0.1760   58.7955 H       1  ZINC000859496582    0.0700
     43 H43        -9.0889    0.2300   58.7836 H       1  ZINC000859496582    0.0700
     44 H44       -10.1542    0.5355   60.1797 H       1  ZINC000859496582    0.1000
     45 H45       -12.1781   -0.4211   61.7120 H       1  ZINC000859496582    0.1300
     46 H46       -12.1382    1.1640   63.5923 H       1  ZINC000859496582    0.1300
     47 H47       -10.3142    1.2769   66.1081 H       1  ZINC000859496582    0.0800
     48 H48        -9.0602    2.2316   65.2811 H       1  ZINC000859496582    0.0700
     49 H49       -10.7809    2.5920   65.0031 H       1  ZINC000859496582    0.0700
     50 H50        -8.0138    0.2994   64.2588 H       1  ZINC000859496582    0.1300
     51 H51        -8.0338   -1.2949   62.3861 H       1  ZINC000859496582    0.1300
     52 H52       -10.2677   -3.4125   58.7605 H       1  ZINC000859496582    0.1100
     53 H53        -9.1632   -2.3432   57.8582 H       1  ZINC000859496582    0.0800
@<TRIPOS>BOND
     1     1     2    1
     2     1    28    1
     3     1    29    1
     4     1    30    1
     5     2     3    1
     6     3     4    2
     7     3     5    1
     8     5     6    1
     9     5    31    1
    10     5    32    1
    11     6     7    1
    12     6    33    1
    13     6    34    1
    14     7     8    1
    15     7    35    1
    16     7    36    1
    17     8     9    1
    18     8    37    1
    19     8    38    1
    20     9    10    1
    21    10    11    2
    22    10    12    1
    23    12    13    1
    24    12    27    1
    25    12    14    1
    26    14    15    1
    27    14    39    1
    28    14    40    1
    29    15    16    1
    30    15    41    1
    31    15    42    1
    32    16    17    1
    33    16    43    1
    34    16    44    1
    35    17    18   am
    36    17    27    1
    37    18    19    2
    38    18    20    1
    39    20    26   ar
    40    20    21   ar
    41    21    22   ar
    42    21    45    1
    43    22    23   ar
    44    22    46    1
    45    23    24    1
    46    23    25   ar
    47    24    47    1
    48    24    48    1
    49    24    49    1
    50    25    26   ar
    51    25    50    1
    52    26    51    1
    53    27    52    1
    54    27    53    1
@<TRIPOS>SUBSTRUCTURE
     1 ZINC000859496582        1 TEMP              0 ****  ****    0 ROOT


##########                                Name:    ZINC000621594459
##########                DOCK_Rotatable_Bonds:                  10
##########                         Heavy_Atoms:                  25
##########                    Molecular_Weight:             389.497
##########                DOCK_Rotatable_Bonds:                  10
##########                       Formal_Charge:         -7.7486e-07
##########                     HBond_Acceptors:                  10
##########                        HBond_Donors:                   3
##########                         Heavy_Atoms:                  25
##########                          Grid_Score:          -37.962025
##########                     Grid_vdw_energy:          -37.286407
##########                      Grid_es_energy:           -0.675616
##########           Internal_energy_repulsive:            7.715293

@<TRIPOS>MOLECULE
ZINC000621594459
 48 49 1 0 0
SMALL
USER_CHARGES


@<TRIPOS>ATOM
      1 C1        -10.4396   -0.1785   52.9789 C.3     1  ZINC000621594459   -0.1600
      2 C2        -11.7476   -0.9720   53.0028 C.3     1  ZINC000621594459    0.1300
      3 C3        -12.7876   -0.2674   52.1295 C.3     1  ZINC000621594459   -0.1800
      4 N4        -11.5094   -2.3218   52.4856 N.am    1  ZINC000621594459   -1.1100
      5 S5        -11.7129   -3.6350   53.4737 S.o2    1  ZINC000621594459    2.6200
      6 O6        -11.4908   -4.7514   52.6231 O.2     1  ZINC000621594459   -0.9500
      7 O7        -10.8601   -3.3761   54.5806 O.2     1  ZINC000621594459   -0.9400
      8 C8        -13.4533   -3.5558   53.9790 C.3     1  ZINC000621594459   -0.6600
      9 C9        -13.6535   -4.3837   55.2501 C.3     1  ZINC000621594459    0.1300
     10 N10       -13.0600   -3.6800   56.3897 N.am    1  ZINC000621594459   -0.7200
     11 C11       -13.4660   -3.9644   57.6429 C.2     1  ZINC000621594459    0.5600
     12 O12       -14.3235   -4.8059   57.8278 O.2     1  ZINC000621594459   -0.5200
     13 C13       -12.8683   -3.2530   58.7930 C.ar    1  ZINC000621594459   -0.1500
     14 C14       -13.6880   -2.6992   59.7773 C.ar    1  ZINC000621594459   -0.0300
     15 C15       -13.1239   -2.0370   60.8484 C.ar    1  ZINC000621594459   -0.1400
     16 C16       -11.7489   -1.9209   60.9473 C.ar    1  ZINC000621594459    0.0100
     17 C17       -10.9305   -2.4673   59.9744 C.ar    1  ZINC000621594459   -0.6800
     18 S18        -9.1805   -2.3133   60.1098 S.o2    1  ZINC000621594459    2.7000
     19 O19        -8.8919   -2.2213   61.4981 O.2     1  ZINC000621594459   -0.9400
     20 O20        -8.6233   -3.3104   59.2645 O.2     1  ZINC000621594459   -0.9500
     21 N21        -8.7643   -0.8533   59.4480 N.am    1  ZINC000621594459   -1.0900
     22 C22        -9.0723   -0.5711   58.0438 C.3     1  ZINC000621594459    0.0800
     23 C23       -10.1572    0.4679   57.7537 C.3     1  ZINC000621594459   -0.1800
     24 C24        -8.6869    0.8057   57.4990 C.3     1  ZINC000621594459   -0.1900
     25 C25       -11.4814   -3.1372   58.9019 C.ar    1  ZINC000621594459    0.0400
     26 H26       -10.6169    0.8258   53.3636 H       1  ZINC000621594459    0.0700
     27 H27        -9.6988   -0.6805   53.6010 H       1  ZINC000621594459    0.0700
     28 H28       -10.0716   -0.1155   51.9549 H       1  ZINC000621594459    0.0600
     29 H29       -12.1157   -1.0350   54.0268 H       1  ZINC000621594459    0.0900
     30 H30       -12.4196   -0.2044   51.1054 H       1  ZINC000621594459    0.0700
     31 H31       -13.7194   -0.8328   52.1464 H       1  ZINC000621594459    0.0600
     32 H32       -12.9649    0.7369   52.5142 H       1  ZINC000621594459    0.0700
     33 H33       -11.2324   -2.4463   51.5643 H       1  ZINC000621594459    0.4200
     34 H34       -13.7284   -2.5193   54.1734 H       1  ZINC000621594459    0.1400
     35 H35       -14.0813   -3.9553   53.1827 H       1  ZINC000621594459    0.1400
     36 H36       -14.7197   -4.5265   55.4264 H       1  ZINC000621594459    0.0900
     37 H37       -13.1717   -5.3542   55.1312 H       1  ZINC000621594459    0.0900
     38 H38       -12.3749   -3.0094   56.2423 H       1  ZINC000621594459    0.4000
     39 H39       -14.7616   -2.7886   59.7009 H       1  ZINC000621594459    0.1300
     40 H40       -13.7571   -1.6080   61.6108 H       1  ZINC000621594459    0.1400
     41 H41       -11.3124   -1.4013   61.7874 H       1  ZINC000621594459    0.1500
     42 H42        -8.3165   -0.1851   59.9902 H       1  ZINC000621594459    0.4200
     43 H43        -8.9943   -1.4207   57.3655 H       1  ZINC000621594459    0.1400
     44 H44       -10.7935    0.3019   56.8843 H       1  ZINC000621594459    0.1100
     45 H45       -10.6418    0.9415   58.6075 H       1  ZINC000621594459    0.1000
     46 H46        -8.2042    1.5015   58.1854 H       1  ZINC000621594459    0.1000
     47 H47        -8.3557    0.8619   56.4621 H       1  ZINC000621594459    0.1000
     48 H48       -10.8416   -3.5635   58.1434 H       1  ZINC000621594459    0.1600
@<TRIPOS>BOND
     1     1     2    1
     2     1    26    1
     3     1    27    1
     4     1    28    1
     5     2     3    1
     6     2     4    1
     7     2    29    1
     8     3    30    1
     9     3    31    1
    10     3    32    1
    11     4     5   am
    12     4    33    1
    13     5     6    2
    14     5     7    2
    15     5     8    1
    16     8     9    1
    17     8    34    1
    18     8    35    1
    19     9    10    1
    20     9    36    1
    21     9    37    1
    22    10    11   am
    23    10    38    1
    24    11    12    2
    25    11    13    1
    26    13    25   ar
    27    13    14   ar
    28    14    15   ar
    29    14    39    1
    30    15    16   ar
    31    15    40    1
    32    16    17   ar
    33    16    41    1
    34    17    18    1
    35    17    25   ar
    36    18    19    2
    37    18    20    2
    38    18    21   am
    39    21    22    1
    40    21    42    1
    41    22    24    1
    42    22    23    1
    43    22    43    1
    44    23    24    1
    45    23    44    1
    46    23    45    1
    47    24    46    1
    48    24    47    1
    49    25    48    1
@<TRIPOS>SUBSTRUCTURE
     1 ZINC000621594459        1 TEMP              0 ****  ****    0 ROOT


##########                                Name:    ZINC000892389374
##########                DOCK_Rotatable_Bonds:                   6
##########                         Heavy_Atoms:                  25
##########                    Molecular_Weight:             371.383
##########                DOCK_Rotatable_Bonds:                   6
##########                       Formal_Charge:          -0.0199998
##########                     HBond_Acceptors:                   9
##########                        HBond_Donors:                   1
##########                         Heavy_Atoms:                  25
##########                          Grid_Score:          -37.960911
##########                     Grid_vdw_energy:          -36.284885
##########                      Grid_es_energy:           -1.676027
##########           Internal_energy_repulsive:           11.786734

@<TRIPOS>MOLECULE
ZINC000892389374
 41 43 1 0 0
SMALL
USER_CHARGES


@<TRIPOS>ATOM
      1 C1         -3.6636    2.9448   53.3507 C.3     1  ZINC000892389374   -0.1000
      2 C2         -3.1995    2.6691   51.9437 C.ar    1  ZINC000892389374   -0.1800
      3 C3         -1.9961    3.1827   51.5009 C.ar    1  ZINC000892389374   -0.0400
      4 C4         -1.5670    2.9318   50.2116 C.ar    1  ZINC000892389374   -0.2100
      5 C5         -2.3451    2.1623   49.3562 C.ar    1  ZINC000892389374    0.2200
      6 N6         -1.9095    1.9089   48.0506 N.am    1  ZINC000892389374   -0.5700
      7 C7         -2.6016    2.3267   46.8217 C.3     1  ZINC000892389374    0.0600
      8 C8         -1.6984    1.7939   45.6926 C.3     1  ZINC000892389374    0.0400
      9 O9         -0.6037    1.1387   46.3962 O.3     1  ZINC000892389374   -0.3200
     10 C10        -0.7910    1.2511   47.7161 C.2     1  ZINC000892389374    0.6400
     11 O11        -0.0217    0.7911   48.5366 O.2     1  ZINC000892389374   -0.5000
     12 C12        -3.5545    1.6448   49.7975 C.ar    1  ZINC000892389374   -0.2300
     13 C13        -3.9802    1.8935   51.0946 C.ar    1  ZINC000892389374    0.2400
     14 N14        -5.1969    1.3746   51.5428 N.pl3   1  ZINC000892389374   -0.7400
     15 C15        -6.2541    1.0516   50.5815 C.3     1  ZINC000892389374    0.2000
     16 C16        -7.3265    0.2443   51.2665 C.2     1  ZINC000892389374   -0.2400
     17 C17        -7.4808   -1.0812   51.1925 C.2     1  ZINC000892389374    0.0600
     18 N18        -8.4983   -1.5524   51.8847 N.2     1  ZINC000892389374   -0.4500
     19 C19        -9.2111   -0.6983   52.5384 C.2     1  ZINC000892389374    0.0200
     20 C20       -10.4100   -1.0429   53.3839 C.3     1  ZINC000892389374   -0.0900
     21 C21       -11.0869   -2.2949   52.8226 C.3     1  ZINC000892389374    0.4600
     22 F22       -12.2148   -2.6001   53.5921 F       1  ZINC000892389374   -0.1800
     23 F23       -11.4746   -2.0619   51.4988 F       1  ZINC000892389374   -0.1800
     24 F24       -10.1901   -3.3680   52.8638 F       1  ZINC000892389374   -0.1700
     25 S25        -8.5938    0.8801   52.3125 S.3     1  ZINC000892389374    0.1900
     26 H26        -3.2900    2.1660   54.0156 H       1  ZINC000892389374    0.0700
     27 H27        -3.2831    3.9131   53.6757 H       1  ZINC000892389374    0.0700
     28 H28        -4.7532    2.9545   53.3787 H       1  ZINC000892389374    0.0600
     29 H29        -1.3895    3.7819   52.1637 H       1  ZINC000892389374    0.1300
     30 H30        -0.6255    3.3348   49.8684 H       1  ZINC000892389374    0.1200
     31 H31        -3.5912    1.8732   46.7666 H       1  ZINC000892389374    0.1000
     32 H32        -2.6740    3.4132   46.7737 H       1  ZINC000892389374    0.1000
     33 H33        -2.2402    1.0766   45.0762 H       1  ZINC000892389374    0.1100
     34 H34        -1.3232    2.6162   45.0833 H       1  ZINC000892389374    0.1100
     35 H35        -4.1614    1.0465   49.1341 H       1  ZINC000892389374    0.1600
     36 H36        -5.3420    1.2279   52.4907 H       1  ZINC000892389374    0.4000
     37 H37        -6.6860    1.9738   50.1929 H       1  ZINC000892389374    0.0900
     38 H38        -5.8332    0.4728   49.7593 H       1  ZINC000892389374    0.0800
     39 H39        -6.8252   -1.7142   50.6130 H       1  ZINC000892389374    0.1800
     40 H40       -10.0899   -1.2313   54.4086 H       1  ZINC000892389374    0.1300
     41 H41       -11.1151   -0.2117   53.3706 H       1  ZINC000892389374    0.1400
@<TRIPOS>BOND
     1     1     2    1
     2     1    26    1
     3     1    27    1
     4     1    28    1
     5     2    13   ar
     6     2     3   ar
     7     3     4   ar
     8     3    29    1
     9     4     5   ar
    10     4    30    1
    11     5     6    1
    12     5    12   ar
    13     6    10   am
    14     6     7    1
    15     7     8    1
    16     7    31    1
    17     7    32    1
    18     8     9    1
    19     8    33    1
    20     8    34    1
    21     9    10    1
    22    10    11    2
    23    12    13   ar
    24    12    35    1
    25    13    14    1
    26    14    15    1
    27    14    36    1
    28    15    16    1
    29    15    37    1
    30    15    38    1
    31    16    25    1
    32    16    17    2
    33    17    18    1
    34    17    39    1
    35    18    19    2
    36    19    20    1
    37    19    25    1
    38    20    21    1
    39    20    40    1
    40    20    41    1
    41    21    22    1
    42    21    23    1
    43    21    24    1
@<TRIPOS>SUBSTRUCTURE
     1 ZINC000892389374        1 TEMP              0 ****  ****    0 ROOT


##########                                Name:    ZINC000506566356
##########                DOCK_Rotatable_Bonds:                  10
##########                         Heavy_Atoms:                  28
##########                    Molecular_Weight:               415.9
##########                DOCK_Rotatable_Bonds:                  10
##########                       Formal_Charge:           0.0199998
##########                     HBond_Acceptors:                   8
##########                        HBond_Donors:                   2
##########                         Heavy_Atoms:                  28
##########                          Grid_Score:          -37.956257
##########                     Grid_vdw_energy:          -36.563007
##########                      Grid_es_energy:           -1.393249
##########           Internal_energy_repulsive:            6.166263

@<TRIPOS>MOLECULE
ZINC000506566356
 46 48 1 0 0
SMALL
USER_CHARGES


@<TRIPOS>ATOM
      1 O1        -10.9679    1.8197   55.8307 O.2     1  ZINC000506566356   -0.5100
      2 C2         -9.8265    1.4132   55.9003 C.2     1  ZINC000506566356    0.5100
      3 N3         -8.9542    1.6809   54.9084 N.am    1  ZINC000506566356   -0.7000
      4 C4         -9.3853    2.4574   53.7435 C.3     1  ZINC000506566356    0.1200
      5 C5         -9.9979    1.5181   52.7026 C.3     1  ZINC000506566356   -0.0900
      6 C6         -8.9127    0.6702   52.0907 C.ar    1  ZINC000506566356   -0.0700
      7 C7         -8.9412   -0.7034   52.2420 C.ar    1  ZINC000506566356   -0.1100
      8 C8         -7.9462   -1.4821   51.6805 C.ar    1  ZINC000506566356   -0.1000
      9 C9         -6.9224   -0.8874   50.9679 C.ar    1  ZINC000506566356   -0.1100
     10 C10        -6.8933    0.4877   50.8162 C.ar    1  ZINC000506566356   -0.0300
     11 Cl11       -5.6077    1.2355   49.9208 Cl      1  ZINC000506566356   -0.0700
     12 C12        -7.8921    1.2658   51.3733 C.ar    1  ZINC000506566356   -0.1000
     13 C13        -9.3869    0.6215   57.0878 C.2     1  ZINC000506566356    0.5100
     14 O14        -8.2197    0.6248   57.4212 O.2     1  ZINC000506566356   -0.5000
     15 N15       -10.2862   -0.0966   57.7894 N.am    1  ZINC000506566356   -0.6300
     16 C16        -9.8745   -0.8381   58.9017 C.ar    1  ZINC000506566356    0.1100
     17 C17        -9.6442   -0.2040   60.1142 C.ar    1  ZINC000506566356   -0.0800
     18 C18        -9.2374   -0.9391   61.2116 C.ar    1  ZINC000506566356   -0.1400
     19 C19        -9.0589   -2.3059   61.1051 C.ar    1  ZINC000506566356   -0.0900
     20 C20        -9.2859   -2.9452   59.9001 C.ar    1  ZINC000506566356   -0.1900
     21 C21        -9.6998   -2.2173   58.7967 C.ar    1  ZINC000506566356    0.1200
     22 O22        -9.9233   -2.8443   57.6112 O.3     1  ZINC000506566356   -0.3100
     23 C23       -10.8316   -3.9475   57.6220 C.3     1  ZINC000506566356    0.1400
     24 C24       -11.6571   -3.9309   56.3614 C.2     1  ZINC000506566356    0.0500
     25 C25       -12.8732   -4.4799   56.2864 C.2     1  ZINC000506566356   -0.2300
     26 S26       -13.4774   -4.2377   54.6490 S.3     1  ZINC000506566356    0.1400
     27 C27       -12.0346   -3.4223   54.2282 C.2     1  ZINC000506566356    0.0200
     28 N28       -11.2412   -3.3690   55.2443 N.2     1  ZINC000506566356   -0.4700
     29 H29        -8.0408    1.3592   54.9658 H       1  ZINC000506566356    0.4200
     30 H30       -10.1288    3.1925   54.0517 H       1  ZINC000506566356    0.0800
     31 H31        -8.5263    2.9694   53.3099 H       1  ZINC000506566356    0.0800
     32 H32       -10.7346    0.8742   53.1833 H       1  ZINC000506566356    0.0900
     33 H33       -10.4826    2.1060   51.9233 H       1  ZINC000506566356    0.0900
     34 H34        -9.7408   -1.1686   52.7994 H       1  ZINC000506566356    0.1300
     35 H35        -7.9690   -2.5553   51.7990 H       1  ZINC000506566356    0.1300
     36 H36        -6.1448   -1.4956   50.5300 H       1  ZINC000506566356    0.1300
     37 H37        -7.8700    2.3390   51.2551 H       1  ZINC000506566356    0.1300
     38 H38       -11.2189   -0.0992   57.5230 H       1  ZINC000506566356    0.4300
     39 H39        -9.7825    0.8636   60.2002 H       1  ZINC000506566356    0.1500
     40 H40        -9.0581   -0.4444   62.1548 H       1  ZINC000506566356    0.1300
     41 H41        -8.7410   -2.8761   61.9655 H       1  ZINC000506566356    0.1300
     42 H42        -9.1447   -4.0130   59.8204 H       1  ZINC000506566356    0.1400
     43 H43       -10.2698   -4.8801   57.6762 H       1  ZINC000506566356    0.0900
     44 H44       -11.4889   -3.8685   58.4879 H       1  ZINC000506566356    0.0900
     45 H45       -13.3937   -4.9831   57.0877 H       1  ZINC000506566356    0.1800
     46 H46       -11.8204   -3.0079   53.2541 H       1  ZINC000506566356    0.2100
@<TRIPOS>BOND
     1     1     2    2
     2     2     3   am
     3     2    13    1
     4     3     4    1
     5     3    29    1
     6     4     5    1
     7     4    30    1
     8     4    31    1
     9     5     6    1
    10     5    32    1
    11     5    33    1
    12     6    12   ar
    13     6     7   ar
    14     7     8   ar
    15     7    34    1
    16     8     9   ar
    17     8    35    1
    18     9    10   ar
    19     9    36    1
    20    10    11    1
    21    10    12   ar
    22    12    37    1
    23    13    14    2
    24    13    15   am
    25    15    16    1
    26    15    38    1
    27    16    21   ar
    28    16    17   ar
    29    17    18   ar
    30    17    39    1
    31    18    19   ar
    32    18    40    1
    33    19    20   ar
    34    19    41    1
    35    20    21   ar
    36    20    42    1
    37    21    22    1
    38    22    23    1
    39    23    24    1
    40    23    43    1
    41    23    44    1
    42    24    28    1
    43    24    25    2
    44    25    26    1
    45    25    45    1
    46    26    27    1
    47    27    28    2
    48    27    46    1
@<TRIPOS>SUBSTRUCTURE
     1 ZINC000506566356        1 TEMP              0 ****  ****    0 ROOT


##########                                Name:    ZINC001139743874
##########                DOCK_Rotatable_Bonds:                   5
##########                         Heavy_Atoms:                  28
##########                    Molecular_Weight:             382.506
##########                DOCK_Rotatable_Bonds:                   5
##########                       Formal_Charge:           0.0199992
##########                     HBond_Acceptors:                   6
##########                        HBond_Donors:                   0
##########                         Heavy_Atoms:                  28
##########                          Grid_Score:          -37.936157
##########                     Grid_vdw_energy:          -38.000198
##########                      Grid_es_energy:            0.064040
##########           Internal_energy_repulsive:           17.200281

@<TRIPOS>MOLECULE
ZINC001139743874
 58 61 1 0 0
SMALL
USER_CHARGES


@<TRIPOS>ATOM
      1 C1          1.1076    2.1807   43.1754 C.3     1  ZINC001139743874   -0.1800
      2 C2          1.7760    0.8047   43.2051 C.3     1  ZINC001139743874    0.1400
      3 C3          1.5843    0.1152   41.8528 C.3     1  ZINC001139743874   -0.1800
      4 C4          3.2709    0.9700   43.4859 C.3     1  ZINC001139743874   -0.1400
      5 O5          1.1737   -0.0035   44.2501 O.3     1  ZINC001139743874   -0.3600
      6 C6         -0.1542    0.1234   44.4322 C.2     1  ZINC001139743874    0.6500
      7 O7         -0.9069    0.0579   43.4805 O.2     1  ZINC001139743874   -0.5700
      8 N8         -0.6487    0.3232   45.6699 N.am    1  ZINC001139743874   -0.5900
      9 C9         -2.0550    0.4600   45.8812 C.3     1  ZINC001139743874    0.1000
     10 C10        -2.6279    1.8951   45.7050 C.3     1  ZINC001139743874   -0.1300
     11 C11        -1.6346    2.9240   46.3185 C.3     1  ZINC001139743874   -0.0900
     12 C12        -1.0143    2.4144   47.5778 C.3     1  ZINC001139743874   -0.0800
     13 C13        -0.9955    3.3939   48.7573 C.3     1  ZINC001139743874    0.0100
     14 N14        -2.2655    2.7548   49.1716 N.3     1  ZINC001139743874   -0.4700
     15 C15        -2.2905    2.5254   50.6224 C.3     1  ZINC001139743874    0.0600
     16 C16        -3.7051    2.2507   51.0632 C.ar    1  ZINC001139743874   -0.1200
     17 C17        -4.3933    3.1937   51.8242 C.ar    1  ZINC001139743874    0.1500
     18 N18        -5.6247    2.9878   52.2247 N.ar    1  ZINC001139743874   -0.4600
     19 C19        -6.2742    1.8622   51.9191 C.ar    1  ZINC001139743874    0.0800
     20 C20        -7.5980    1.6440   52.3507 C.ar    1  ZINC001139743874   -0.0400
     21 C21        -8.2054    0.4719   52.0039 C.ar    1  ZINC001139743874   -0.1600
     22 C22        -7.5170   -0.4715   51.2428 C.ar    1  ZINC001139743874    0.1300
     23 N23        -6.2857   -0.2658   50.8428 N.ar    1  ZINC001139743874   -0.4700
     24 C24        -5.6360    0.8601   51.1483 C.ar    1  ZINC001139743874    0.0800
     25 C25        -4.3144    1.0804   50.7123 C.ar    1  ZINC001139743874   -0.0400
     26 C26        -1.9043    1.5162   48.4446 C.3     1  ZINC001139743874    0.0000
     27 C27         0.3557    1.8045   47.2655 C.3     1  ZINC001139743874   -0.1300
     28 C28         0.2629    0.4005   46.8550 C.3     1  ZINC001139743874    0.1400
     29 H29         0.0426    2.0629   42.9753 H       1  ZINC001139743874    0.0900
     30 H30         1.2442    2.6718   44.1388 H       1  ZINC001139743874    0.0600
     31 H31         1.5598    2.7874   42.3909 H       1  ZINC001139743874    0.0700
     32 H32         2.0365    0.7220   41.0683 H       1  ZINC001139743874    0.0700
     33 H33         2.0606   -0.8650   41.8739 H       1  ZINC001139743874    0.0600
     34 H34         0.5193   -0.0025   41.6527 H       1  ZINC001139743874    0.0900
     35 H35         3.4075    1.4611   44.4494 H       1  ZINC001139743874    0.0700
     36 H36         3.7472   -0.0103   43.5071 H       1  ZINC001139743874    0.0700
     37 H37         3.7231    1.5768   42.7014 H       1  ZINC001139743874    0.0800
     38 H38        -2.5703   -0.2009   45.1841 H       1  ZINC001139743874    0.0700
     39 H39        -2.2820    0.1239   46.8929 H       1  ZINC001139743874    0.0900
     40 H40        -2.7612    2.1060   44.6439 H       1  ZINC001139743874    0.0700
     41 H41        -3.5887    1.9683   46.2147 H       1  ZINC001139743874    0.0800
     42 H42        -0.8474    3.1327   45.5941 H       1  ZINC001139743874    0.0600
     43 H43        -2.1699    3.8485   46.5352 H       1  ZINC001139743874    0.0700
     44 H44        -0.1727    3.2292   49.4528 H       1  ZINC001139743874    0.0700
     45 H45        -1.1039    4.4381   48.4636 H       1  ZINC001139743874    0.0900
     46 H46        -1.6613    1.6692   50.8658 H       1  ZINC001139743874    0.0600
     47 H47        -1.9150    3.4101   51.1366 H       1  ZINC001139743874    0.0900
     48 H48        -3.9001    4.1167   52.0908 H       1  ZINC001139743874    0.1700
     49 H49        -8.1180    2.3845   52.9404 H       1  ZINC001139743874    0.1500
     50 H50        -9.2194    0.2752   52.3193 H       1  ZINC001139743874    0.1500
     51 H51        -8.0100   -1.3947   50.9765 H       1  ZINC001139743874    0.1700
     52 H52        -3.7958    0.3414   50.1196 H       1  ZINC001139743874    0.1400
     53 H53        -2.7359    1.0661   47.9023 H       1  ZINC001139743874    0.1000
     54 H54        -1.3493    0.7980   49.0481 H       1  ZINC001139743874    0.0700
     55 H55         0.8229    2.3777   46.4648 H       1  ZINC001139743874    0.0700
     56 H56         0.9819    1.8697   48.1553 H       1  ZINC001139743874    0.0800
     57 H57        -0.1401   -0.1957   47.6736 H       1  ZINC001139743874    0.0800
     58 H58         1.2517    0.0312   46.5832 H       1  ZINC001139743874    0.1000
@<TRIPOS>BOND
     1     1     2    1
     2     1    29    1
     3     1    30    1
     4     1    31    1
     5     2     3    1
     6     2     4    1
     7     2     5    1
     8     3    32    1
     9     3    33    1
    10     3    34    1
    11     4    35    1
    12     4    36    1
    13     4    37    1
    14     5     6    1
    15     6     7    2
    16     6     8   am
    17     8    28    1
    18     8     9    1
    19     9    10    1
    20     9    38    1
    21     9    39    1
    22    10    11    1
    23    10    40    1
    24    10    41    1
    25    11    12    1
    26    11    42    1
    27    11    43    1
    28    12    26    1
    29    12    13    1
    30    12    27    1
    31    13    14    1
    32    13    44    1
    33    13    45    1
    34    14    15    1
    35    14    26    1
    36    15    16    1
    37    15    46    1
    38    15    47    1
    39    16    25   ar
    40    16    17   ar
    41    17    18   ar
    42    17    48    1
    43    18    19   ar
    44    19    24   ar
    45    19    20   ar
    46    20    21   ar
    47    20    49    1
    48    21    22   ar
    49    21    50    1
    50    22    23   ar
    51    22    51    1
    52    23    24   ar
    53    24    25   ar
    54    25    52    1
    55    26    53    1
    56    26    54    1
    57    27    28    1
    58    27    55    1
    59    27    56    1
    60    28    57    1
    61    28    58    1
@<TRIPOS>SUBSTRUCTURE
     1 ZINC001139743874        1 TEMP              0 ****  ****    0 ROOT


##########                                Name:    ZINC001369071670
##########                DOCK_Rotatable_Bonds:                   8
##########                         Heavy_Atoms:                  24
##########                    Molecular_Weight:             335.366
##########                DOCK_Rotatable_Bonds:                   8
##########                       Formal_Charge:        -2.90573e-07
##########                     HBond_Acceptors:                  10
##########                        HBond_Donors:                   1
##########                         Heavy_Atoms:                  24
##########                          Grid_Score:          -37.912643
##########                     Grid_vdw_energy:          -37.994602
##########                      Grid_es_energy:            0.081960
##########           Internal_energy_repulsive:            6.505794

@<TRIPOS>MOLECULE
ZINC001369071670
 45 47 1 0 0
SMALL
USER_CHARGES


@<TRIPOS>ATOM
      1 C1         -5.3701    0.8976   50.7488 C.3     1  ZINC001369071670   -0.0800
      2 C2         -6.5715    0.0824   51.1527 C.2     1  ZINC001369071670    0.0000
      3 C3         -7.6004    0.4895   51.9308 C.2     1  ZINC001369071670   -0.2300
      4 C4         -8.4493   -0.6460   51.9976 C.2     1  ZINC001369071670    0.2100
      5 O5         -9.6261   -0.7449   52.6663 O.3     1  ZINC001369071670   -0.2600
      6 C6        -10.3167   -1.9931   52.5830 C.3     1  ZINC001369071670    0.0400
      7 C7        -11.4654   -1.9978   53.5584 C.2     1  ZINC001369071670    0.5200
      8 O8        -11.9613   -0.9504   53.9163 O.2     1  ZINC001369071670   -0.5100
      9 N9        -11.9416   -3.1658   54.0331 N.am    1  ZINC001369071670   -0.7200
     10 C10       -13.0594   -3.1704   54.9800 C.3     1  ZINC001369071670    0.1500
     11 H11       -13.2935   -2.1464   55.2709 H       1  ZINC001369071670    0.0900
     12 C12       -14.2847   -3.8058   54.3197 C.3     1  ZINC001369071670   -0.1700
     13 C13       -12.6731   -3.9774   56.2213 C.3     1  ZINC001369071670   -0.1200
     14 C14       -11.4416   -3.4245   56.9612 C.3     1  ZINC001369071670    0.0100
     15 N15       -12.1909   -3.6977   58.2074 N.3     1  ZINC001369071670   -0.4800
     16 C16       -12.0429   -2.5926   59.1638 C.3     1  ZINC001369071670    0.1000
     17 C17       -10.7050   -2.6977   59.8496 C.2     1  ZINC001369071670    0.1900
     18 N18        -9.8942   -3.7272   59.8297 N.2     1  ZINC001369071670   -0.3000
     19 N19        -8.8560   -3.4298   60.5322 N.2     1  ZINC001369071670   -0.0700
     20 N20        -8.9835   -2.2372   60.9998 N.2     1  ZINC001369071670   -0.0900
     21 N21       -10.1083   -1.7504   60.5966 N.pl3   1  ZINC001369071670   -0.3000
     22 C22       -10.6404   -0.4201   60.9024 C.3     1  ZINC001369071670    0.0800
     23 C23       -13.4756   -3.6007   57.4797 C.3     1  ZINC001369071670    0.0200
     24 N24        -7.8715   -1.5765   51.2861 N.2     1  ZINC001369071670   -0.4100
     25 O25        -6.8323   -1.1864   50.8064 O.3     1  ZINC001369071670    0.1000
     26 H26        -4.7188    0.2956   50.1152 H       1  ZINC001369071670    0.0900
     27 H27        -5.6978    1.7797   50.1986 H       1  ZINC001369071670    0.1000
     28 H28        -4.8247    1.2073   51.6403 H       1  ZINC001369071670    0.1000
     29 H29        -7.7428    1.4547   52.3939 H       1  ZINC001369071670    0.1800
     30 H30       -10.6987   -2.1302   51.5712 H       1  ZINC001369071670    0.1000
     31 H31        -9.6308   -2.8048   52.8254 H       1  ZINC001369071670    0.1000
     32 H32       -11.5442   -4.0034   53.7478 H       1  ZINC001369071670    0.4000
     33 H33       -14.5598   -3.2309   53.4355 H       1  ZINC001369071670    0.0600
     34 H34       -14.0506   -4.8299   54.0289 H       1  ZINC001369071670    0.0600
     35 H35       -15.1163   -3.8093   55.0243 H       1  ZINC001369071670    0.0700
     36 H36       -12.6291   -5.0502   56.0337 H       1  ZINC001369071670    0.1100
     37 H37       -10.5472   -4.0362   56.8434 H       1  ZINC001369071670    0.1000
     38 H38       -11.2603   -2.3648   56.7812 H       1  ZINC001369071670    0.0800
     39 H39       -12.1057   -1.6424   58.6335 H       1  ZINC001369071670    0.1000
     40 H40       -12.8377   -2.6469   59.9077 H       1  ZINC001369071670    0.0900
     41 H41       -10.3089    0.2874   60.1423 H       1  ZINC001369071670    0.1000
     42 H42       -11.7296   -0.4580   60.9131 H       1  ZINC001369071670    0.1000
     43 H43       -10.2783   -0.0998   61.8794 H       1  ZINC001369071670    0.1100
     44 H44       -13.8891   -2.5926   57.4513 H       1  ZINC001369071670    0.0800
     45 H45       -14.2062   -4.3532   57.7762 H       1  ZINC001369071670    0.1000
@<TRIPOS>BOND
     1     1     2    1
     2     1    26    1
     3     1    27    1
     4     1    28    1
     5     2    25    1
     6     2     3    2
     7     3     4    1
     8     3    29    1
     9     4     5    1
    10     4    24    2
    11     5     6    1
    12     6     7    1
    13     6    30    1
    14     6    31    1
    15     7     8    2
    16     7     9   am
    17     9    10    1
    18     9    32    1
    19    10    11    1
    20    10    12    1
    21    10    13    1
    22    12    33    1
    23    12    34    1
    24    12    35    1
    25    13    23    1
    26    13    14    1
    27    13    36    1
    28    14    15    1
    29    14    37    1
    30    14    38    1
    31    15    16    1
    32    15    23    1
    33    16    17    1
    34    16    39    1
    35    16    40    1
    36    17    21    1
    37    17    18    2
    38    18    19    1
    39    19    20    2
    40    20    21    1
    41    21    22    1
    42    22    41    1
    43    22    42    1
    44    22    43    1
    45    23    44    1
    46    23    45    1
    47    24    25    1
@<TRIPOS>SUBSTRUCTURE
     1 ZINC001369071670        1 TEMP              0 ****  ****    0 ROOT


##########                                Name:    ZINC000437192871
##########                DOCK_Rotatable_Bonds:                   9
##########                         Heavy_Atoms:                  28
##########                    Molecular_Weight:             423.298
##########                DOCK_Rotatable_Bonds:                   9
##########                       Formal_Charge:         -8.9407e-08
##########                     HBond_Acceptors:                   9
##########                        HBond_Donors:                   1
##########                         Heavy_Atoms:                  28
##########                          Grid_Score:          -37.891319
##########                     Grid_vdw_energy:          -37.008427
##########                      Grid_es_energy:           -0.882892
##########           Internal_energy_repulsive:           15.120132

@<TRIPOS>MOLECULE
ZINC000437192871
 48 50 1 0 0
SMALL
USER_CHARGES


@<TRIPOS>ATOM
      1 C1         -9.7206    1.2984   64.7145 C.3     1  ZINC000437192871   -0.1700
      2 C2         -9.1790    0.7930   63.3757 C.3     1  ZINC000437192871    0.1300
      3 N3        -10.1818    1.0099   62.3300 N.pl3   1  ZINC000437192871   -0.3600
      4 C4        -10.3326    0.2731   61.2096 C.2     1  ZINC000437192871    0.0700
      5 C5        -11.3649    0.7958   60.5079 C.2     1  ZINC000437192871   -0.2700
      6 C6        -11.8872    0.2886   59.1886 C.3     1  ZINC000437192871    0.1900
      7 N7        -11.7257   -1.1662   59.1262 N.am    1  ZINC000437192871   -0.6000
      8 C8        -12.5107   -2.0291   60.0124 C.3     1  ZINC000437192871    0.1100
      9 C9        -13.8205   -2.4132   59.3211 C.3     1  ZINC000437192871    0.0600
     10 O10       -14.6175   -3.1963   60.2119 O.3     1  ZINC000437192871   -0.5600
     11 C11       -10.8550   -1.7107   58.2534 C.2     1  ZINC000437192871    0.6000
     12 O12       -10.2034   -0.9945   57.5174 O.2     1  ZINC000437192871   -0.5000
     13 C13       -10.6926   -3.1732   58.1906 C.2     1  ZINC000437192871   -0.2200
     14 C14        -9.9773   -3.9914   59.0281 C.2     1  ZINC000437192871    0.0100
     15 C15        -9.1753   -3.5689   60.2321 C.3     1  ZINC000437192871   -0.0800
     16 O16       -10.1313   -5.2351   58.5680 O.3     1  ZINC000437192871    0.1100
     17 N17       -10.8270   -5.2993   57.5844 N.2     1  ZINC000437192871   -0.3200
     18 C18       -11.2654   -4.1230   57.2137 C.2     1  ZINC000437192871    0.0800
     19 C19       -12.1402   -3.8099   56.0582 C.ar    1  ZINC000437192871   -0.0200
     20 C20       -11.6975   -2.9433   55.0605 C.ar    1  ZINC000437192871   -0.0700
     21 C21       -12.5151   -2.6556   53.9869 C.ar    1  ZINC000437192871   -0.1000
     22 C22       -13.7737   -3.2258   53.8989 C.ar    1  ZINC000437192871   -0.0100
     23 Cl23      -14.7965   -2.8594   52.5448 Cl      1  ZINC000437192871   -0.0500
     24 C24       -14.2193   -4.0874   54.8866 C.ar    1  ZINC000437192871   -0.1100
     25 C25       -13.4072   -4.3865   55.9627 C.ar    1  ZINC000437192871    0.0000
     26 Cl26      -13.9664   -5.4674   57.2006 Cl      1  ZINC000437192871   -0.0300
     27 C27       -11.8619    1.8896   61.2241 C.2     1  ZINC000437192871    0.0600
     28 N28       -11.1573    2.0152   62.3195 N.2     1  ZINC000437192871   -0.2900
     29 H29        -8.9745    1.1369   65.4925 H       1  ZINC000437192871    0.0800
     30 H30        -9.9418    2.3630   64.6384 H       1  ZINC000437192871    0.0600
     31 H31       -10.6315    0.7551   64.9662 H       1  ZINC000437192871    0.0700
     32 H32        -8.2681    1.3363   63.1240 H       1  ZINC000437192871    0.1000
     33 H33        -8.9579   -0.2716   63.4518 H       1  ZINC000437192871    0.0900
     34 H34        -9.7361   -0.5808   60.9239 H       1  ZINC000437192871    0.1600
     35 H35       -12.9434    0.5412   59.0946 H       1  ZINC000437192871    0.0900
     36 H36       -11.3291    0.7513   58.3747 H       1  ZINC000437192871    0.0800
     37 H37       -11.9417   -2.9307   60.2393 H       1  ZINC000437192871    0.1000
     38 H38       -12.7308   -1.4959   60.9373 H       1  ZINC000437192871    0.1000
     39 H39       -14.3646   -1.5097   59.0458 H       1  ZINC000437192871    0.0600
     40 H40       -13.6017   -2.9929   58.4243 H       1  ZINC000437192871    0.0500
     41 H41       -14.2055   -4.0293   60.4792 H       1  ZINC000437192871    0.3800
     42 H42        -9.7856   -3.6716   61.1293 H       1  ZINC000437192871    0.1000
     43 H43        -8.2913   -4.2005   60.3196 H       1  ZINC000437192871    0.0900
     44 H44        -8.8692   -2.5290   60.1180 H       1  ZINC000437192871    0.0900
     45 H45       -10.7162   -2.4975   55.1278 H       1  ZINC000437192871    0.1600
     46 H46       -12.1726   -1.9838   53.2136 H       1  ZINC000437192871    0.1500
     47 H47       -15.2018   -4.5296   54.8133 H       1  ZINC000437192871    0.1500
     48 H48       -12.6877    2.5187   60.9268 H       1  ZINC000437192871    0.1800
@<TRIPOS>BOND
     1     1     2    1
     2     1    29    1
     3     1    30    1
     4     1    31    1
     5     2     3    1
     6     2    32    1
     7     2    33    1
     8     3    28    1
     9     3     4    1
    10     4     5    2
    11     4    34    1
    12     5     6    1
    13     5    27    1
    14     6     7    1
    15     6    35    1
    16     6    36    1
    17     7     8    1
    18     7    11   am
    19     8     9    1
    20     8    37    1
    21     8    38    1
    22     9    10    1
    23     9    39    1
    24     9    40    1
    25    10    41    1
    26    11    12    2
    27    11    13    1
    28    13    18    1
    29    13    14    2
    30    14    15    1
    31    14    16    1
    32    15    42    1
    33    15    43    1
    34    15    44    1
    35    16    17    1
    36    17    18    2
    37    18    19    1
    38    19    25   ar
    39    19    20   ar
    40    20    21   ar
    41    20    45    1
    42    21    22   ar
    43    21    46    1
    44    22    23    1
    45    22    24   ar
    46    24    25   ar
    47    24    47    1
    48    25    26    1
    49    27    28    2
    50    27    48    1
@<TRIPOS>SUBSTRUCTURE
     1 ZINC000437192871        1 TEMP              0 ****  ****    0 ROOT


##########                                Name:    ZINC000474251633
##########                DOCK_Rotatable_Bonds:                   8
##########                         Heavy_Atoms:                  28
##########                    Molecular_Weight:             416.931
##########                DOCK_Rotatable_Bonds:                   8
##########                       Formal_Charge:          0.00999953
##########                     HBond_Acceptors:                   8
##########                        HBond_Donors:                   2
##########                         Heavy_Atoms:                  28
##########                          Grid_Score:          -37.790180
##########                     Grid_vdw_energy:          -35.907681
##########                      Grid_es_energy:           -1.882498
##########           Internal_energy_repulsive:            7.101881

@<TRIPOS>MOLECULE
ZINC000474251633
 49 52 1 0 0
SMALL
USER_CHARGES


@<TRIPOS>ATOM
      1 O1        -10.4998   -4.1713   53.7363 O.2     1  ZINC000474251633   -0.5300
      2 C2        -11.4619   -3.4736   53.9787 C.2     1  ZINC000474251633    0.5100
      3 C3        -12.3183   -3.7636   55.1843 C.3     1  ZINC000474251633    0.1000
      4 N4        -11.7432   -3.1073   56.3611 N.am    1  ZINC000474251633   -0.7100
      5 C5        -11.7430   -3.7385   57.5519 C.2     1  ZINC000474251633    0.5900
      6 O6        -12.2191   -4.8539   57.6493 O.2     1  ZINC000474251633   -0.5000
      7 C7        -11.1682   -3.0799   58.7317 C.2     1  ZINC000474251633   -0.2300
      8 C8        -11.7531   -2.0842   59.4080 C.2     1  ZINC000474251633    0.0400
      9 Cl9       -13.3007   -1.4410   58.9552 Cl      1  ZINC000474251633   -0.0100
     10 C10       -11.0309   -1.5945   60.5098 C.ar    1  ZINC000474251633   -0.0900
     11 C11       -11.3789   -0.5601   61.4103 C.ar    1  ZINC000474251633   -0.0600
     12 C12       -10.5435   -0.2212   62.4281 C.ar    1  ZINC000474251633   -0.1200
     13 C13        -9.3346   -0.8829   62.6033 C.ar    1  ZINC000474251633   -0.0800
     14 C14        -8.9684   -1.8916   61.7449 C.ar    1  ZINC000474251633   -0.0900
     15 C15        -9.8111   -2.2585   60.6907 C.ar    1  ZINC000474251633   -0.1200
     16 S16        -9.6234   -3.4954   59.4529 S.3     1  ZINC000474251633    0.1700
     17 N17       -11.7618   -2.4357   53.1729 N.am    1  ZINC000474251633   -0.7200
     18 C18       -10.9292   -2.1539   52.0009 C.3     1  ZINC000474251633    0.2100
     19 C19        -9.8683   -1.1486   52.3684 C.2     1  ZINC000474251633    0.0500
     20 N20       -10.0164   -0.1435   53.1927 N.2     1  ZINC000474251633   -0.2700
     21 N21        -8.8002    0.5482   53.2625 N.pl3   1  ZINC000474251633   -0.3600
     22 C22        -8.5314    1.7395   54.0718 C.3     1  ZINC000474251633    0.1500
     23 C23        -9.8224    2.5672   54.2386 C.3     1  ZINC000474251633   -0.1400
     24 C24       -10.3975    2.1037   55.6001 C.3     1  ZINC000474251633   -0.1300
     25 C25        -9.1249    1.9180   56.4633 C.3     1  ZINC000474251633   -0.1200
     26 C26        -8.0879    1.3268   55.4863 C.3     1  ZINC000474251633   -0.1400
     27 C27        -7.9200   -0.0768   52.4529 C.2     1  ZINC000474251633    0.0600
     28 C28        -8.5533   -1.1328   51.8919 C.2     1  ZINC000474251633   -0.2600
     29 H29       -13.3262   -3.3852   55.0135 H       1  ZINC000474251633    0.1100
     30 H30       -12.3578   -4.8399   55.3516 H       1  ZINC000474251633    0.1100
     31 H31       -11.3626   -2.2185   56.2831 H       1  ZINC000474251633    0.4100
     32 H32       -12.3149   -0.0355   61.2880 H       1  ZINC000474251633    0.1300
     33 H33       -10.8226    0.5707   63.1074 H       1  ZINC000474251633    0.1400
     34 H34        -8.6806   -0.6034   63.4161 H       1  ZINC000474251633    0.1400
     35 H35        -8.0272   -2.4026   61.8848 H       1  ZINC000474251633    0.1400
     36 H36       -12.5290   -1.8754   53.3690 H       1  ZINC000474251633    0.4100
     37 H37       -10.4552   -3.0749   51.6620 H       1  ZINC000474251633    0.0900
     38 H38       -11.5511   -1.7500   51.2020 H       1  ZINC000474251633    0.0900
     39 H39        -7.7575    2.3446   53.5995 H       1  ZINC000474251633    0.1100
     40 H40        -9.5920    3.6323   54.2645 H       1  ZINC000474251633    0.0900
     41 H41       -10.5234    2.3471   53.4335 H       1  ZINC000474251633    0.0800
     42 H42       -11.0454    2.8695   56.0266 H       1  ZINC000474251633    0.0800
     43 H43       -10.9322    1.1600   55.4923 H       1  ZINC000474251633    0.0700
     44 H44        -8.7820    2.8783   56.8485 H       1  ZINC000474251633    0.0700
     45 H45        -9.3170    1.2243   57.2817 H       1  ZINC000474251633    0.0700
     46 H46        -8.0727    0.2401   55.5705 H       1  ZINC000474251633    0.0700
     47 H47        -7.0992    1.7322   55.7007 H       1  ZINC000474251633    0.0800
     48 H48        -6.8926    0.2117   52.2859 H       1  ZINC000474251633    0.1700
     49 H49        -8.1217   -1.8356   51.1947 H       1  ZINC000474251633    0.1500
@<TRIPOS>BOND
     1     1     2    2
     2     2     3    1
     3     2    17   am
     4     3     4    1
     5     3    29    1
     6     3    30    1
     7     4     5   am
     8     4    31    1
     9     5     6    2
    10     5     7    1
    11     7    16    1
    12     7     8    2
    13     8     9    1
    14     8    10    1
    15    10    15   ar
    16    10    11   ar
    17    11    12   ar
    18    11    32    1
    19    12    13   ar
    20    12    33    1
    21    13    14   ar
    22    13    34    1
    23    14    15   ar
    24    14    35    1
    25    15    16    1
    26    17    18    1
    27    17    36    1
    28    18    19    1
    29    18    37    1
    30    18    38    1
    31    19    28    1
    32    19    20    2
    33    20    21    1
    34    21    22    1
    35    21    27    1
    36    22    26    1
    37    22    23    1
    38    22    39    1
    39    23    24    1
    40    23    40    1
    41    23    41    1
    42    24    25    1
    43    24    42    1
    44    24    43    1
    45    25    26    1
    46    25    44    1
    47    25    45    1
    48    26    46    1
    49    26    47    1
    50    27    28    2
    51    27    48    1
    52    28    49    1
@<TRIPOS>SUBSTRUCTURE
     1 ZINC000474251633        1 TEMP              0 ****  ****    0 ROOT


##########                                Name:    ZINC000508765459
##########                DOCK_Rotatable_Bonds:                  10
##########                         Heavy_Atoms:                  29
##########                    Molecular_Weight:               405.5
##########                DOCK_Rotatable_Bonds:                  10
##########                       Formal_Charge:         -6.4075e-07
##########                     HBond_Acceptors:                  10
##########                        HBond_Donors:                   1
##########                         Heavy_Atoms:                  29
##########                          Grid_Score:          -37.787022
##########                     Grid_vdw_energy:          -37.273216
##########                      Grid_es_energy:           -0.513806
##########           Internal_energy_repulsive:           15.640924

@<TRIPOS>MOLECULE
ZINC000508765459
 60 62 1 0 0
SMALL
USER_CHARGES


@<TRIPOS>ATOM
      1 C1         -8.6136    0.4318   63.9789 C.3     1  ZINC000508765459    0.0300
      2 O2         -9.7244   -0.2329   63.3734 O.3     1  ZINC000508765459   -0.3900
      3 C3         -9.7350   -0.1645   61.9461 C.3     1  ZINC000508765459    0.0500
      4 C4        -11.0568   -0.7259   61.4184 C.3     1  ZINC000508765459    0.1100
      5 N5        -10.8213   -1.4178   60.1488 N.am    1  ZINC000508765459   -0.5900
      6 C6        -11.3514   -0.8080   58.9369 C.3     1  ZINC000508765459    0.1000
      7 C7        -10.5987   -1.3100   57.7031 C.3     1  ZINC000508765459    0.1200
      8 N8        -10.4857   -2.7753   57.7982 N.am    1  ZINC000508765459   -0.6400
      9 C9        -11.0378   -3.5828   56.8712 C.2     1  ZINC000508765459    0.7100
     10 O10       -10.9306   -4.7895   56.9746 O.2     1  ZINC000508765459   -0.5800
     11 N11       -11.7088   -3.0526   55.8294 N.am    1  ZINC000508765459   -0.7400
     12 C12       -12.3105   -3.9305   54.8226 C.3     1  ZINC000508765459    0.1400
     13 C13       -11.4132   -3.9762   53.5841 C.3     1  ZINC000508765459   -0.1400
     14 C14       -11.7927   -2.8361   52.6371 C.3     1  ZINC000508765459    0.0600
     15 N15       -11.0065   -1.6408   52.9700 N.3     1  ZINC000508765459   -0.5400
     16 C16       -11.7598   -0.4148   52.6717 C.3     1  ZINC000508765459    0.0500
     17 C17       -10.9402    0.8028   53.1054 C.3     1  ZINC000508765459    0.0700
     18 N18        -9.6496    0.7968   52.4024 N.3     1  ZINC000508765459   -0.4600
     19 C19        -8.9088    1.9231   52.7162 C.ar    1  ZINC000508765459    0.4900
     20 N20        -8.0970    1.8923   53.7628 N.ar    1  ZINC000508765459   -0.5500
     21 C21        -7.3747    2.9511   54.0898 C.ar    1  ZINC000508765459    0.1700
     22 C22        -7.4752    4.1011   53.3226 C.ar    1  ZINC000508765459   -0.2600
     23 C23        -8.3340    4.0990   52.2346 C.ar    1  ZINC000508765459    0.1700
     24 N24        -9.0242    3.0046   51.9595 N.ar    1  ZINC000508765459   -0.5300
     25 C25        -8.8963   -0.4291   52.7007 C.3     1  ZINC000508765459    0.0700
     26 C26        -9.7159   -1.6466   52.2670 C.3     1  ZINC000508765459    0.0600
     27 C27        -9.7454   -3.3213   58.9454 C.3     1  ZINC000508765459    0.1000
     28 C28       -10.1320   -2.5592   60.1831 C.2     1  ZINC000508765459    0.5100
     29 O29        -9.8095   -3.0074   61.2629 O.2     1  ZINC000508765459   -0.5400
     30 H30        -8.6299    1.4874   63.7076 H       1  ZINC000508765459    0.0400
     31 H31        -8.6785    0.3341   65.0626 H       1  ZINC000508765459    0.0900
     32 H32        -7.6852   -0.0192   63.6283 H       1  ZINC000508765459    0.0400
     33 H33        -9.6298    0.8737   61.6313 H       1  ZINC000508765459    0.0500
     34 H34        -8.9066   -0.7506   61.5481 H       1  ZINC000508765459    0.0600
     35 H35       -11.4689   -1.4276   62.1436 H       1  ZINC000508765459    0.1100
     36 H36       -11.7618    0.0907   61.2620 H       1  ZINC000508765459    0.0900
     37 H37       -12.4073   -1.0606   58.8404 H       1  ZINC000508765459    0.0700
     38 H38       -11.2470    0.2748   59.0049 H       1  ZINC000508765459    0.1000
     39 H39       -11.1496   -1.0413   56.8017 H       1  ZINC000508765459    0.1200
     40 H40        -9.6040   -0.8655   57.6730 H       1  ZINC000508765459    0.0800
     41 H41       -11.7932   -2.0899   55.7462 H       1  ZINC000508765459    0.4000
     42 H42       -12.4155   -4.9350   55.2325 H       1  ZINC000508765459    0.0700
     43 H43       -13.2924   -3.5464   54.5459 H       1  ZINC000508765459    0.0700
     44 H44       -10.3716   -3.8665   53.8859 H       1  ZINC000508765459    0.0700
     45 H45       -11.5454   -4.9308   53.0748 H       1  ZINC000508765459    0.0800
     46 H46       -11.5850   -3.1331   51.6092 H       1  ZINC000508765459    0.0800
     47 H47       -12.8546   -2.6137   52.7435 H       1  ZINC000508765459    0.0400
     48 H48       -11.9547   -0.3592   51.6007 H       1  ZINC000508765459    0.0500
     49 H49       -12.7055   -0.4283   53.2135 H       1  ZINC000508765459    0.0900
     50 H50       -11.4845    1.7143   52.8587 H       1  ZINC000508765459    0.0900
     51 H51       -10.7684    0.7612   54.1810 H       1  ZINC000508765459    0.0600
     52 H52        -6.7150    2.9201   54.9443 H       1  ZINC000508765459    0.1700
     53 H53        -6.8971    4.9800   53.5674 H       1  ZINC000508765459    0.1500
     54 H54        -8.4356    4.9789   51.6168 H       1  ZINC000508765459    0.1700
     55 H55        -7.9505   -0.4157   52.1589 H       1  ZINC000508765459    0.1000
     56 H56        -8.7014   -0.4846   53.7717 H       1  ZINC000508765459    0.0500
     57 H57        -9.1715   -2.5581   52.5138 H       1  ZINC000508765459    0.0900
     58 H58        -9.8876   -1.6051   51.1914 H       1  ZINC000508765459    0.0500
     59 H59        -9.9920   -4.3757   59.0706 H       1  ZINC000508765459    0.1100
     60 H60        -8.6745   -3.2130   58.7738 H       1  ZINC000508765459    0.1100
@<TRIPOS>BOND
     1     1     2    1
     2     1    30    1
     3     1    31    1
     4     1    32    1
     5     2     3    1
     6     3     4    1
     7     3    33    1
     8     3    34    1
     9     4     5    1
    10     4    35    1
    11     4    36    1
    12     5    28   am
    13     5     6    1
    14     6     7    1
    15     6    37    1
    16     6    38    1
    17     7     8    1
    18     7    39    1
    19     7    40    1
    20     8     9   am
    21     8    27    1
    22     9    10    2
    23     9    11   am
    24    11    12    1
    25    11    41    1
    26    12    13    1
    27    12    42    1
    28    12    43    1
    29    13    14    1
    30    13    44    1
    31    13    45    1
    32    14    15    1
    33    14    46    1
    34    14    47    1
    35    15    26    1
    36    15    16    1
    37    16    17    1
    38    16    48    1
    39    16    49    1
    40    17    18    1
    41    17    50    1
    42    17    51    1
    43    18    19    1
    44    18    25    1
    45    19    24   ar
    46    19    20   ar
    47    20    21   ar
    48    21    22   ar
    49    21    52    1
    50    22    23   ar
    51    22    53    1
    52    23    24   ar
    53    23    54    1
    54    25    26    1
    55    25    55    1
    56    25    56    1
    57    26    57    1
    58    26    58    1
    59    27    28    1
    60    27    59    1
    61    27    60    1
    62    28    29    2
@<TRIPOS>SUBSTRUCTURE
     1 ZINC000508765459        1 TEMP              0 ****  ****    0 ROOT


##########                                Name:    ZINC000007167963
##########                DOCK_Rotatable_Bonds:                   8
##########                         Heavy_Atoms:                  25
##########                    Molecular_Weight:             378.433
##########                DOCK_Rotatable_Bonds:                   8
##########                       Formal_Charge:        -1.01328e-06
##########                     HBond_Acceptors:                  10
##########                        HBond_Donors:                   3
##########                         Heavy_Atoms:                  25
##########                          Grid_Score:          -37.784874
##########                     Grid_vdw_energy:          -36.690231
##########                      Grid_es_energy:           -1.094644
##########           Internal_energy_repulsive:            8.034182

@<TRIPOS>MOLECULE
ZINC000007167963
 39 41 1 0 0
SMALL
USER_CHARGES


@<TRIPOS>ATOM
      1 C1         -8.2160    2.6299   52.1910 C.3     1  ZINC000007167963   -0.0800
      2 C2         -7.3851    1.5485   51.5497 C.2     1  ZINC000007167963    0.0900
      3 C3         -7.6939    0.2236   51.5134 C.2     1  ZINC000007167963   -0.1500
      4 C4         -8.8900   -0.4301   52.0848 C.2     1  ZINC000007167963    0.2600
      5 N5         -9.7983    0.1376   52.8403 N.2     1  ZINC000007167963   -0.2700
      6 N6        -10.6959   -0.7289   53.1544 N.2     1  ZINC000007167963   -0.2800
      7 C7        -10.3964   -1.8848   52.6118 C.2     1  ZINC000007167963    0.1200
      8 S8        -11.3244   -3.3757   52.7552 S.3     1  ZINC000007167963    0.1500
      9 C9        -12.2092   -3.0478   54.2999 C.3     1  ZINC000007167963   -0.1200
     10 H10       -12.6228   -2.0397   54.2748 H       1  ZINC000007167963    0.1400
     11 C11       -13.3442   -4.0609   54.4624 C.3     1  ZINC000007167963   -0.1500
     12 C12       -11.2559   -3.1709   55.4606 C.2     1  ZINC000007167963    0.5300
     13 O13       -10.3386   -3.9627   55.4106 O.2     1  ZINC000007167963   -0.4900
     14 N14       -11.4229   -2.4011   56.5543 N.am    1  ZINC000007167963   -0.6100
     15 C15       -10.5448   -2.5132   57.6215 C.2     1  ZINC000007167963    0.0800
     16 C16        -9.7564   -1.4955   58.0924 C.2     1  ZINC000007167963   -0.2400
     17 C17        -9.7446   -0.1463   57.5185 C.2     1  ZINC000007167963    0.5900
     18 N18        -9.9406    0.9254   58.3119 N.am    1  ZINC000007167963   -0.8400
     19 O19        -9.5579    0.0058   56.3255 O.2     1  ZINC000007167963   -0.5600
     20 C20        -8.9382   -1.8941   59.2166 C.2     1  ZINC000007167963   -0.0900
     21 C21        -9.1135   -3.1607   59.5658 C.2     1  ZINC000007167963   -0.2800
     22 S22       -10.3028   -3.9333   58.5325 S.3     1  ZINC000007167963    0.3000
     23 O23        -9.2518   -1.7215   51.9197 O.3     1  ZINC000007167963   -0.2000
     24 C24        -6.5920   -0.4218   50.7877 C.2     1  ZINC000007167963   -0.1800
     25 C25        -5.7374    0.5614   50.4610 C.2     1  ZINC000007167963   -0.0300
     26 O26        -6.2191    1.7291   50.9130 O.3     1  ZINC000007167963   -0.1700
     27 H27        -7.7228    3.5931   52.0597 H       1  ZINC000007167963    0.0800
     28 H28        -9.1996    2.6586   51.7222 H       1  ZINC000007167963    0.1000
     29 H29        -8.3265    2.4204   53.2550 H       1  ZINC000007167963    0.1000
     30 H30       -14.0336   -3.9719   53.6229 H       1  ZINC000007167963    0.0900
     31 H31       -12.9305   -5.0690   54.4876 H       1  ZINC000007167963    0.0800
     32 H32       -13.8769   -3.8634   55.3926 H       1  ZINC000007167963    0.0800
     33 H33       -12.1573   -1.7688   56.5947 H       1  ZINC000007167963    0.4400
     34 H34        -9.9339    1.8179   57.9318 H       1  ZINC000007167963    0.4000
     35 H35       -10.0882    0.8044   59.2628 H       1  ZINC000007167963    0.4100
     36 H36        -8.2534   -1.2277   59.7198 H       1  ZINC000007167963    0.1500
     37 H37        -8.5973   -3.6497   60.3787 H       1  ZINC000007167963    0.1700
     38 H38        -6.4896   -1.4732   50.5632 H       1  ZINC000007167963    0.1600
     39 H39        -4.8128    0.4330   49.9179 H       1  ZINC000007167963    0.2200
@<TRIPOS>BOND
     1     1     2    1
     2     1    27    1
     3     1    28    1
     4     1    29    1
     5     2    26    1
     6     2     3    2
     7     3     4    1
     8     3    24    1
     9     4    23    1
    10     4     5    2
    11     5     6    1
    12     6     7    2
    13     7     8    1
    14     7    23    1
    15     8     9    1
    16     9    10    1
    17     9    11    1
    18     9    12    1
    19    11    30    1
    20    11    31    1
    21    11    32    1
    22    12    13    2
    23    12    14   am
    24    14    15    1
    25    14    33    1
    26    15    22    1
    27    15    16    2
    28    16    17    1
    29    16    20    1
    30    17    18   am
    31    17    19    2
    32    18    34    1
    33    18    35    1
    34    20    21    2
    35    20    36    1
    36    21    22    1
    37    21    37    1
    38    24    25    2
    39    24    38    1
    40    25    26    1
    41    25    39    1
@<TRIPOS>SUBSTRUCTURE
     1 ZINC000007167963        1 TEMP              0 ****  ****    0 ROOT


##########                                Name:    ZINC000062291520
##########                DOCK_Rotatable_Bonds:                  10
##########                         Heavy_Atoms:                  29
##########                    Molecular_Weight:             398.502
##########                DOCK_Rotatable_Bonds:                  10
##########                       Formal_Charge:          -0.0100006
##########                     HBond_Acceptors:                   6
##########                        HBond_Donors:                   1
##########                         Heavy_Atoms:                  29
##########                          Grid_Score:          -37.778976
##########                     Grid_vdw_energy:          -35.437435
##########                      Grid_es_energy:           -2.341542
##########           Internal_energy_repulsive:           14.116869

@<TRIPOS>MOLECULE
ZINC000062291520
 59 61 1 0 0
SMALL
USER_CHARGES


@<TRIPOS>ATOM
      1 C1         -2.1566    4.9380   62.5581 C.3     1  ZINC000062291520    0.0300
      2 O2         -2.2766    4.2364   61.3189 O.3     1  ZINC000062291520   -0.3100
      3 C3         -1.9283    2.9218   61.3177 C.ar    1  ZINC000062291520    0.1000
      4 C4         -1.4824    2.3207   62.4833 C.ar    1  ZINC000062291520   -0.1700
      5 C5         -1.1233    0.9852   62.4789 C.ar    1  ZINC000062291520   -0.1200
      6 C6         -1.2137    0.2459   61.3146 C.ar    1  ZINC000062291520   -0.1200
      7 C7         -1.6640    0.8384   60.1491 C.ar    1  ZINC000062291520   -0.1700
      8 C8         -2.0253    2.1757   60.1466 C.ar    1  ZINC000062291520    0.1000
      9 O9         -2.4685    2.7597   59.0011 O.3     1  ZINC000062291520   -0.3100
     10 C10        -2.4648    1.9560   57.8196 C.3     1  ZINC000062291520    0.0700
     11 C11        -3.0232    2.7676   56.6489 C.3     1  ZINC000062291520   -0.1400
     12 C12        -4.3948    3.2817   57.0031 C.2     1  ZINC000062291520    0.5200
     13 O13        -4.5350    4.4265   57.3784 O.2     1  ZINC000062291520   -0.5400
     14 N14        -5.4655    2.4694   56.9028 N.am    1  ZINC000062291520   -0.7200
     15 C15        -6.7987    2.9687   57.2487 C.3     1  ZINC000062291520    0.1600
     16 C16        -7.8437    2.0275   56.7071 C.ar    1  ZINC000062291520   -0.1100
     17 C17        -7.9468    1.8196   55.3446 C.ar    1  ZINC000062291520   -0.1000
     18 C18        -8.9053    0.9558   54.8478 C.ar    1  ZINC000062291520   -0.1200
     19 C19        -9.7603    0.3003   55.7136 C.ar    1  ZINC000062291520   -0.0900
     20 C20        -9.6574    0.5088   57.0765 C.ar    1  ZINC000062291520   -0.0800
     21 C21       -10.5899   -0.2056   58.0205 C.3     1  ZINC000062291520    0.0900
     22 N22       -10.2305   -1.6286   58.0806 N.3     1  ZINC000062291520   -0.5300
     23 C23        -9.8005   -2.0066   59.4347 C.3     1  ZINC000062291520    0.0100
     24 C24        -9.3794   -3.4786   59.4382 C.3     1  ZINC000062291520    0.0600
     25 O25       -10.4671   -4.2814   58.9717 O.3     1  ZINC000062291520   -0.3800
     26 C26       -10.9110   -3.9407   57.6555 C.3     1  ZINC000062291520    0.0900
     27 H27       -10.0963   -4.0892   56.9468 H       1  ZINC000062291520    0.0700
     28 C28       -12.0933   -4.8314   57.2687 C.3     1  ZINC000062291520   -0.1500
     29 C29       -11.3475   -2.4735   57.6339 C.3     1  ZINC000062291520    0.0200
     30 C30        -8.6955    1.3679   57.5736 C.ar    1  ZINC000062291520   -0.0900
     31 H31        -2.7934    4.4657   63.3061 H       1  ZINC000062291520    0.0500
     32 H32        -1.1198    4.9094   62.8930 H       1  ZINC000062291520    0.0600
     33 H33        -2.4654    5.9743   62.4202 H       1  ZINC000062291520    0.1000
     34 H34        -1.4107    2.8960   63.3944 H       1  ZINC000062291520    0.1400
     35 H35        -0.7718    0.5188   63.3873 H       1  ZINC000062291520    0.1300
     36 H36        -0.9324   -0.7967   61.3152 H       1  ZINC000062291520    0.1300
     37 H37        -1.7344    0.2584   59.2407 H       1  ZINC000062291520    0.1400
     38 H38        -3.0847    1.0737   57.9785 H       1  ZINC000062291520    0.0700
     39 H39        -1.4442    1.6471   57.5934 H       1  ZINC000062291520    0.0700
     40 H40        -3.0901    2.1324   55.7657 H       1  ZINC000062291520    0.1100
     41 H41        -2.3620    3.6091   56.4421 H       1  ZINC000062291520    0.1100
     42 H42        -5.3535    1.5542   56.6014 H       1  ZINC000062291520    0.4000
     43 H43        -6.8931    3.0314   58.3328 H       1  ZINC000062291520    0.0800
     44 H44        -6.9403    3.9580   56.8138 H       1  ZINC000062291520    0.0800
     45 H45        -7.2785    2.3314   54.6682 H       1  ZINC000062291520    0.1200
     46 H46        -8.9856    0.7929   53.7832 H       1  ZINC000062291520    0.1300
     47 H47       -10.5090   -0.3744   55.3255 H       1  ZINC000062291520    0.1200
     48 H48       -10.5060    0.2327   59.0150 H       1  ZINC000062291520    0.0500
     49 H49       -11.6151   -0.1044   57.6643 H       1  ZINC000062291520    0.0900
     50 H50        -8.9563   -1.3858   59.7351 H       1  ZINC000062291520    0.0900
     51 H51       -10.6253   -1.8617   60.1323 H       1  ZINC000062291520    0.0400
     52 H52        -8.5199   -3.6129   58.7815 H       1  ZINC000062291520    0.0600
     53 H53        -9.1141   -3.7788   60.4520 H       1  ZINC000062291520    0.1000
     54 H54       -12.9082   -4.6814   57.9768 H       1  ZINC000062291520    0.0600
     55 H55       -12.4312   -4.5713   56.2656 H       1  ZINC000062291520    0.0700
     56 H56       -11.7829   -5.8761   57.2880 H       1  ZINC000062291520    0.0700
     57 H57       -12.1974   -2.3368   58.3026 H       1  ZINC000062291520    0.0400
     58 H58       -11.6327   -2.1935   56.6199 H       1  ZINC000062291520    0.0900
     59 H59        -8.6120    1.5270   58.6385 H       1  ZINC000062291520    0.1200
@<TRIPOS>BOND
     1     1     2    1
     2     1    31    1
     3     1    32    1
     4     1    33    1
     5     2     3    1
     6     3     8   ar
     7     3     4   ar
     8     4     5   ar
     9     4    34    1
    10     5     6   ar
    11     5    35    1
    12     6     7   ar
    13     6    36    1
    14     7     8   ar
    15     7    37    1
    16     8     9    1
    17     9    10    1
    18    10    11    1
    19    10    38    1
    20    10    39    1
    21    11    12    1
    22    11    40    1
    23    11    41    1
    24    12    13    2
    25    12    14   am
    26    14    15    1
    27    14    42    1
    28    15    16    1
    29    15    43    1
    30    15    44    1
    31    16    30   ar
    32    16    17   ar
    33    17    18   ar
    34    17    45    1
    35    18    19   ar
    36    18    46    1
    37    19    20   ar
    38    19    47    1
    39    20    21    1
    40    20    30   ar
    41    21    22    1
    42    21    48    1
    43    21    49    1
    44    22    29    1
    45    22    23    1
    46    23    24    1
    47    23    50    1
    48    23    51    1
    49    24    25    1
    50    24    52    1
    51    24    53    1
    52    25    26    1
    53    26    27    1
    54    26    28    1
    55    26    29    1
    56    28    54    1
    57    28    55    1
    58    28    56    1
    59    29    57    1
    60    29    58    1
    61    30    59    1
@<TRIPOS>SUBSTRUCTURE
     1 ZINC000062291520        1 TEMP              0 ****  ****    0 ROOT


##########                                Name:    ZINC001707804910
##########                DOCK_Rotatable_Bonds:                   4
##########                         Heavy_Atoms:                  26
##########                    Molecular_Weight:             358.403
##########                DOCK_Rotatable_Bonds:                   4
##########                       Formal_Charge:          -0.0399996
##########                     HBond_Acceptors:                  10
##########                        HBond_Donors:                   0
##########                         Heavy_Atoms:                  26
##########                          Grid_Score:          -37.778671
##########                     Grid_vdw_energy:          -37.071789
##########                      Grid_es_energy:           -0.706882
##########           Internal_energy_repulsive:            9.655590

@<TRIPOS>MOLECULE
ZINC001707804910
 48 51 1 0 0
SMALL
USER_CHARGES


@<TRIPOS>ATOM
      1 C1         -8.5468    1.0398   56.3468 C.3     1  ZINC001707804910   -0.0700
      2 C2         -9.3586    0.4515   57.4719 C.2     1  ZINC001707804910    0.0700
      3 N3         -9.4349    0.9219   58.6904 N.2     1  ZINC001707804910   -0.2800
      4 N4        -10.2896    0.0919   59.4273 N.pl3   1  ZINC001707804910   -0.3700
      5 C5        -10.6505    0.2605   60.8371 C.3     1  ZINC001707804910    0.0900
      6 C6        -10.7220   -0.8903   58.6091 C.2     1  ZINC001707804910    0.0500
      7 C7        -11.6610   -2.0084   58.9821 C.3     1  ZINC001707804910    0.1800
      8 N8        -11.0488   -3.2947   58.6405 N.pl3   1  ZINC001707804910   -0.4600
      9 C9         -9.9274   -3.8481   59.1936 C.2     1  ZINC001707804910    0.1900
     10 C10        -9.0773   -3.2446   60.2819 C.3     1  ZINC001707804910   -0.0700
     11 N11        -9.7304   -4.9942   58.6060 N.2     1  ZINC001707804910   -0.2800
     12 N12       -10.6441   -5.2010   57.7259 N.2     1  ZINC001707804910   -0.3000
     13 C13       -11.4827   -4.1919   57.7084 C.2     1  ZINC001707804910    0.3500
     14 N14       -12.5941   -4.0586   56.8915 N.3     1  ZINC001707804910   -0.4600
     15 C15       -13.2765   -5.3488   56.7155 C.3     1  ZINC001707804910    0.0200
     16 C16       -14.5283   -5.1451   55.8581 C.3     1  ZINC001707804910    0.0700
     17 O17       -14.1543   -4.5558   54.6098 O.3     1  ZINC001707804910   -0.3600
     18 C18       -13.4879   -3.2976   54.7439 C.3     1  ZINC001707804910    0.2000
     19 H19       -14.1519   -2.5841   55.2320 H       1  ZINC001707804910    0.1000
     20 C20       -13.1092   -2.7807   53.3799 C.2     1  ZINC001707804910    0.1600
     21 N21       -11.9016   -2.5392   52.9550 N.2     1  ZINC001707804910   -0.2500
     22 N22       -11.9533   -2.1096   51.7433 N.2     1  ZINC001707804910   -0.2900
     23 C23       -13.1956   -2.0625   51.3540 C.2     1  ZINC001707804910    0.1700
     24 C24       -13.6903   -1.6156   50.0024 C.3     1  ZINC001707804910   -0.0600
     25 O25       -13.9546   -2.4900   52.3769 O.3     1  ZINC001707804910   -0.2200
     26 C26       -12.2255   -3.4825   55.5902 C.3     1  ZINC001707804910    0.0400
     27 C27       -10.1655   -0.6882   57.3922 C.2     1  ZINC001707804910   -0.2300
     28 H28        -9.1510    1.7669   55.8043 H       1  ZINC001707804910    0.0800
     29 H29        -7.6643    1.5328   56.7547 H       1  ZINC001707804910    0.0700
     30 H30        -8.2377    0.2452   55.6676 H       1  ZINC001707804910    0.0800
     31 H31       -11.4752    0.9686   60.9189 H       1  ZINC001707804910    0.0800
     32 H32       -10.9544   -0.7006   61.2518 H       1  ZINC001707804910    0.0900
     33 H33        -9.7905    0.6390   61.3895 H       1  ZINC001707804910    0.0900
     34 H34       -11.8599   -1.9736   60.0532 H       1  ZINC001707804910    0.1100
     35 H35       -12.5968   -1.8947   58.4349 H       1  ZINC001707804910    0.1200
     36 H36        -9.5131   -3.4761   61.2538 H       1  ZINC001707804910    0.0900
     37 H37        -8.0702   -3.6579   60.2275 H       1  ZINC001707804910    0.1000
     38 H38        -9.0338   -2.1633   60.1514 H       1  ZINC001707804910    0.0700
     39 H39       -12.6058   -6.0506   56.2197 H       1  ZINC001707804910    0.0700
     40 H40       -13.5630   -5.7448   57.6898 H       1  ZINC001707804910    0.0900
     41 H41       -15.0062   -6.1080   55.6772 H       1  ZINC001707804910    0.1200
     42 H42       -15.2227   -4.4856   56.3785 H       1  ZINC001707804910    0.0700
     43 H43       -13.7375   -2.4730   49.3311 H       1  ZINC001707804910    0.1000
     44 H44       -14.6839   -1.1793   50.1051 H       1  ZINC001707804910    0.1000
     45 H45       -13.0072   -0.8712   49.5934 H       1  ZINC001707804910    0.1100
     46 H46       -11.7449   -2.5161   55.7429 H       1  ZINC001707804910    0.1000
     47 H47       -11.5380   -4.1544   55.0762 H       1  ZINC001707804910    0.0800
     48 H48       -10.3133   -1.3022   56.5161 H       1  ZINC001707804910    0.1500
@<TRIPOS>BOND
     1     1     2    1
     2     1    28    1
     3     1    29    1
     4     1    30    1
     5     2    27    1
     6     2     3    2
     7     3     4    1
     8     4     5    1
     9     4     6    1
    10     5    31    1
    11     5    32    1
    12     5    33    1
    13     6     7    1
    14     6    27    2
    15     7     8    1
    16     7    34    1
    17     7    35    1
    18     8    13    1
    19     8     9    1
    20     9    10    1
    21     9    11    2
    22    10    36    1
    23    10    37    1
    24    10    38    1
    25    11    12    1
    26    12    13    2
    27    13    14    1
    28    14    26    1
    29    14    15    1
    30    15    16    1
    31    15    39    1
    32    15    40    1
    33    16    17    1
    34    16    41    1
    35    16    42    1
    36    17    18    1
    37    18    19    1
    38    18    20    1
    39    18    26    1
    40    20    25    1
    41    20    21    2
    42    21    22    1
    43    22    23    2
    44    23    24    1
    45    23    25    1
    46    24    43    1
    47    24    44    1
    48    24    45    1
    49    26    46    1
    50    26    47    1
    51    27    48    1
@<TRIPOS>SUBSTRUCTURE
     1 ZINC001707804910        1 TEMP              0 ****  ****    0 ROOT


##########                                Name:    ZINC001065334255
##########                DOCK_Rotatable_Bonds:                   7
##########                         Heavy_Atoms:                  23
##########                    Molecular_Weight:             346.448
##########                DOCK_Rotatable_Bonds:                   7
##########                       Formal_Charge:        -5.81145e-07
##########                     HBond_Acceptors:                   8
##########                        HBond_Donors:                   1
##########                         Heavy_Atoms:                  23
##########                          Grid_Score:          -37.748089
##########                     Grid_vdw_energy:          -35.158195
##########                      Grid_es_energy:           -2.589894
##########           Internal_energy_repulsive:           20.613909

@<TRIPOS>MOLECULE
ZINC001065334255
 49 50 1 0 0
SMALL
USER_CHARGES


@<TRIPOS>ATOM
      1 C1         -9.6500    0.4687   63.4676 C.3     1  ZINC001065334255   -0.1500
      2 C2        -10.8551    1.3885   63.6744 C.3     1  ZINC001065334255   -0.0800
      3 C3        -10.6369    2.2413   64.9259 C.3     1  ZINC001065334255   -0.1500
      4 C4        -11.0149    2.3012   62.4569 C.3     1  ZINC001065334255   -0.1400
      5 C5        -11.1094    1.4619   61.2088 C.2     1  ZINC001065334255    0.5100
      6 O6        -12.1368    0.8706   60.9520 O.2     1  ZINC001065334255   -0.5300
      7 N7        -10.0523    1.3683   60.3780 N.am    1  ZINC001065334255   -0.7300
      8 C8        -10.1448    0.5537   59.1638 C.3     1  ZINC001065334255    0.1300
      9 C9        -10.1697   -0.9280   59.5445 C.3     1  ZINC001065334255    0.0700
     10 H10       -11.0991   -1.1539   60.0674 H       1  ZINC001065334255    0.0700
     11 C11       -10.0746   -1.7841   58.2765 C.3     1  ZINC001065334255    0.0800
     12 N12        -9.9117   -3.1906   58.6773 N.am    1  ZINC001065334255   -0.6100
     13 C13       -10.6998   -4.1546   58.1614 C.2     1  ZINC001065334255    0.5400
     14 O14       -10.5497   -5.3084   58.5039 O.2     1  ZINC001065334255   -0.5200
     15 C15       -11.7673   -3.7991   57.1590 C.3     1  ZINC001065334255   -0.1100
     16 H16       -12.3235   -2.9260   57.5003 H       1  ZINC001065334255    0.1200
     17 C17       -12.7230   -4.9890   56.9625 C.3     1  ZINC001065334255   -0.1000
     18 C18       -13.5811   -4.7318   55.7078 C.3     1  ZINC001065334255   -0.5900
     19 S19       -12.5491   -3.6692   54.6347 S.o2    1  ZINC001065334255    2.3900
     20 O20       -12.1527   -4.4045   53.4852 O.2     1  ZINC001065334255   -0.9300
     21 O21       -13.1756   -2.4028   54.4835 O.2     1  ZINC001065334255   -0.9300
     22 C22       -11.1243   -3.5125   55.7776 C.3     1  ZINC001065334255   -0.5900
     23 C23        -8.8627   -3.5135   59.6574 C.3     1  ZINC001065334255    0.0600
     24 C24        -9.0170   -2.5732   60.8582 C.3     1  ZINC001065334255    0.0500
     25 O25        -9.0594   -1.2210   60.3960 O.3     1  ZINC001065334255   -0.3700
     26 H26        -9.5361   -0.1815   64.3351 H       1  ZINC001065334255    0.0600
     27 H27        -9.8055   -0.1389   62.5761 H       1  ZINC001065334255    0.0500
     28 H28        -8.7500    1.0711   63.3445 H       1  ZINC001065334255    0.0600
     29 H29       -11.7550    0.7861   63.7977 H       1  ZINC001065334255    0.0800
     30 H30        -9.7368    2.8437   64.8027 H       1  ZINC001065334255    0.0500
     31 H31       -11.4953    2.8966   65.0731 H       1  ZINC001065334255    0.0700
     32 H32       -10.5230    1.5911   65.7932 H       1  ZINC001065334255    0.0500
     33 H33       -11.9224    2.8953   62.5647 H       1  ZINC001065334255    0.0900
     34 H34       -10.1530    2.9644   62.3843 H       1  ZINC001065334255    0.0900
     35 H35        -9.2303    1.8402   60.5841 H       1  ZINC001065334255    0.4000
     36 H36       -11.0585    0.8060   58.6258 H       1  ZINC001065334255    0.0900
     37 H37        -9.2821    0.7509   58.5275 H       1  ZINC001065334255    0.0800
     38 H38       -10.9860   -1.6729   57.6891 H       1  ZINC001065334255    0.1100
     39 H39        -9.2151   -1.4691   57.6846 H       1  ZINC001065334255    0.0900
     40 H40       -12.1462   -5.9044   56.8306 H       1  ZINC001065334255    0.1000
     41 H41       -13.3693   -5.0879   57.8346 H       1  ZINC001065334255    0.1000
     42 H42       -13.8072   -5.6720   55.2047 H       1  ZINC001065334255    0.1500
     43 H43       -14.5022   -4.2155   55.9785 H       1  ZINC001065334255    0.1400
     44 H44       -10.7104   -2.5045   55.7440 H       1  ZINC001065334255    0.1400
     45 H45       -10.3594   -4.2537   55.5464 H       1  ZINC001065334255    0.1500
     46 H46        -8.9717   -4.5475   59.9845 H       1  ZINC001065334255    0.1000
     47 H47        -7.8813   -3.3727   59.2045 H       1  ZINC001065334255    0.0900
     48 H48        -9.9417   -2.8057   61.3863 H       1  ZINC001065334255    0.0600
     49 H49        -8.1699   -2.7012   61.5320 H       1  ZINC001065334255    0.1100
@<TRIPOS>BOND
     1     1     2    1
     2     1    26    1
     3     1    27    1
     4     1    28    1
     5     2     3    1
     6     2     4    1
     7     2    29    1
     8     3    30    1
     9     3    31    1
    10     3    32    1
    11     4     5    1
    12     4    33    1
    13     4    34    1
    14     5     6    2
    15     5     7   am
    16     7     8    1
    17     7    35    1
    18     8     9    1
    19     8    36    1
    20     8    37    1
    21     9    10    1
    22     9    25    1
    23     9    11    1
    24    11    12    1
    25    11    38    1
    26    11    39    1
    27    12    13   am
    28    12    23    1
    29    13    14    2
    30    13    15    1
    31    15    16    1
    32    15    22    1
    33    15    17    1
    34    17    18    1
    35    17    40    1
    36    17    41    1
    37    18    19    1
    38    18    42    1
    39    18    43    1
    40    19    20    2
    41    19    21    2
    42    19    22    1
    43    22    44    1
    44    22    45    1
    45    23    24    1
    46    23    46    1
    47    23    47    1
    48    24    25    1
    49    24    48    1
    50    24    49    1
@<TRIPOS>SUBSTRUCTURE
     1 ZINC001065334255        1 TEMP              0 ****  ****    0 ROOT


##########                                Name:    ZINC000442864105
##########                DOCK_Rotatable_Bonds:                   7
##########                         Heavy_Atoms:                  30
##########                    Molecular_Weight:              414.39
##########                DOCK_Rotatable_Bonds:                   7
##########                       Formal_Charge:           0.0200001
##########                     HBond_Acceptors:                  10
##########                        HBond_Donors:                   2
##########                         Heavy_Atoms:                  30
##########                          Grid_Score:          -37.733994
##########                     Grid_vdw_energy:          -36.540161
##########                      Grid_es_energy:           -1.193833
##########           Internal_energy_repulsive:           12.241612

@<TRIPOS>MOLECULE
ZINC000442864105
 47 50 1 0 0
SMALL
USER_CHARGES


@<TRIPOS>ATOM
      1 C1         -3.1003    1.7400   46.5919 C.3     1  ZINC000442864105    0.0800
      2 N2         -2.3912    2.2621   47.7628 N.pl3   1  ZINC000442864105   -0.4900
      3 C3         -1.1820    2.9052   47.7286 C.2     1  ZINC000442864105    0.0300
      4 C4         -0.8139    3.2534   48.9712 C.2     1  ZINC000442864105   -0.1900
      5 C5         -1.8728    2.7966   49.8759 C.ar    1  ZINC000442864105   -0.1600
      6 C6         -2.0616    2.8638   51.2578 C.ar    1  ZINC000442864105   -0.0200
      7 C7         -3.1869    2.3294   51.8172 C.ar    1  ZINC000442864105   -0.2100
      8 C8         -4.1506    1.7163   51.0180 C.ar    1  ZINC000442864105    0.2400
      9 N9         -5.2970    1.1742   51.6063 N.pl3   1  ZINC000442864105   -0.7400
     10 C10        -6.3731    0.6467   50.7636 C.3     1  ZINC000442864105    0.1100
     11 C11        -7.3765   -0.0766   51.6245 C.2     1  ZINC000442864105    0.5100
     12 O12        -7.2821   -1.2746   51.7897 O.2     1  ZINC000442864105   -0.5100
     13 N13        -8.3787    0.6075   52.2110 N.am    1  ZINC000442864105   -0.6600
     14 C14        -9.3106   -0.0643   53.0106 C.ar    1  ZINC000442864105    0.1600
     15 C15       -10.1067   -1.0601   52.4639 C.ar    1  ZINC000442864105   -0.0700
     16 C16       -11.0262   -1.7221   53.2553 C.ar    1  ZINC000442864105   -0.1600
     17 C17       -11.8899   -2.8036   52.6592 C.3     1  ZINC000442864105    0.5100
     18 F18       -12.5895   -3.4570   53.6793 F       1  ZINC000442864105   -0.1700
     19 F19       -12.7988   -2.2327   51.7618 F       1  ZINC000442864105   -0.1700
     20 F20       -11.0830   -3.7249   51.9828 F       1  ZINC000442864105   -0.1700
     21 C21       -11.1557   -1.3952   54.5927 C.ar    1  ZINC000442864105   -0.0600
     22 C22       -10.3670   -0.4041   55.1457 C.ar    1  ZINC000442864105   -0.1100
     23 C23        -9.4377    0.2615   54.3607 C.ar    1  ZINC000442864105    0.1500
     24 N24        -8.6363    1.2676   54.9198 N.pl3   1  ZINC000442864105   -0.3300
     25 C25        -8.3737    2.4782   54.3907 C.2     1  ZINC000442864105    0.2800
     26 N26        -7.5884    3.1201   55.2177 N.2     1  ZINC000442864105   -0.5300
     27 C27        -7.3292    2.3576   56.2792 C.2     1  ZINC000442864105    0.2300
     28 N28        -7.9529    1.2160   56.1456 N.2     1  ZINC000442864105   -0.3400
     29 C29        -3.9811    1.6407   49.6462 C.ar    1  ZINC000442864105   -0.2100
     30 C30        -2.8433    2.1848   49.0613 C.ar    1  ZINC000442864105    0.1500
     31 H31        -3.7544    2.5132   46.1888 H       1  ZINC000442864105    0.0700
     32 H32        -2.3777    1.4430   45.8320 H       1  ZINC000442864105    0.0800
     33 H33        -3.6967    0.8756   46.8840 H       1  ZINC000442864105    0.0800
     34 H34        -0.6097    3.1027   46.8342 H       1  ZINC000442864105    0.1700
     35 H35         0.0913    3.7716   49.2515 H       1  ZINC000442864105    0.1400
     36 H36        -1.3188    3.3369   51.8830 H       1  ZINC000442864105    0.1200
     37 H37        -3.3311    2.3818   52.8862 H       1  ZINC000442864105    0.1200
     38 H38        -5.3799    1.1471   52.5723 H       1  ZINC000442864105    0.4100
     39 H39        -6.8653    1.4697   50.2455 H       1  ZINC000442864105    0.1000
     40 H40        -5.9559   -0.0455   50.0323 H       1  ZINC000442864105    0.1000
     41 H41        -8.4541    1.5655   52.0790 H       1  ZINC000442864105    0.4300
     42 H42       -10.0081   -1.3178   51.4197 H       1  ZINC000442864105    0.1700
     43 H43       -11.8755   -1.9158   55.2069 H       1  ZINC000442864105    0.1500
     44 H44       -10.4710   -0.1512   56.1905 H       1  ZINC000442864105    0.1500
     45 H45        -8.7456    2.8531   53.4487 H       1  ZINC000442864105    0.2300
     46 H46        -6.7081    2.6387   57.1167 H       1  ZINC000442864105    0.2300
     47 H47        -4.7314    1.1644   49.0326 H       1  ZINC000442864105    0.1200
@<TRIPOS>BOND
     1     1     2    1
     2     1    31    1
     3     1    32    1
     4     1    33    1
     5     2    30    1
     6     2     3    1
     7     3     4    2
     8     3    34    1
     9     4     5    1
    10     4    35    1
    11     5    30   ar
    12     5     6   ar
    13     6     7   ar
    14     6    36    1
    15     7     8   ar
    16     7    37    1
    17     8     9    1
    18     8    29   ar
    19     9    10    1
    20     9    38    1
    21    10    11    1
    22    10    39    1
    23    10    40    1
    24    11    12    2
    25    11    13   am
    26    13    14    1
    27    13    41    1
    28    14    23   ar
    29    14    15   ar
    30    15    16   ar
    31    15    42    1
    32    16    17    1
    33    16    21   ar
    34    17    18    1
    35    17    19    1
    36    17    20    1
    37    21    22   ar
    38    21    43    1
    39    22    23   ar
    40    22    44    1
    41    23    24    1
    42    24    28    1
    43    24    25    1
    44    25    26    2
    45    25    45    1
    46    26    27    1
    47    27    28    2
    48    27    46    1
    49    29    30   ar
    50    29    47    1
@<TRIPOS>SUBSTRUCTURE
     1 ZINC000442864105        1 TEMP              0 ****  ****    0 ROOT


##########                                Name:    ZINC000816269301
##########                DOCK_Rotatable_Bonds:                   7
##########                         Heavy_Atoms:                  25
##########                    Molecular_Weight:             358.784
##########                DOCK_Rotatable_Bonds:                   7
##########                       Formal_Charge:           0.0100002
##########                     HBond_Acceptors:                   8
##########                        HBond_Donors:                   1
##########                         Heavy_Atoms:                  25
##########                          Grid_Score:          -37.703423
##########                     Grid_vdw_energy:          -37.802021
##########                      Grid_es_energy:            0.098600
##########           Internal_energy_repulsive:            6.550659

@<TRIPOS>MOLECULE
ZINC000816269301
 40 42 1 0 0
SMALL
USER_CHARGES


@<TRIPOS>ATOM
      1 C1         -9.7960   -1.2974   61.0973 C.3     1  ZINC000816269301    0.1000
      2 N2         -9.7882   -2.5354   60.3139 N.pl3   1  ZINC000816269301   -0.4000
      3 N3         -8.8112   -3.5406   60.3466 N.2     1  ZINC000816269301    0.0000
      4 N4         -9.1324   -4.4790   59.5274 N.2     1  ZINC000816269301   -0.2000
      5 C5        -10.3014   -4.1805   58.9120 C.ar    1  ZINC000816269301   -0.0300
      6 C6        -11.0732   -4.8462   57.9561 C.ar    1  ZINC000816269301    0.0500
      7 C7        -12.2560   -4.2704   57.5079 C.ar    1  ZINC000816269301   -0.1400
      8 C8        -13.0768   -4.9675   56.4988 C.2     1  ZINC000816269301    0.5200
      9 O9        -13.3032   -6.1554   56.6152 O.2     1  ZINC000816269301   -0.5000
     10 O10       -13.5752   -4.2866   55.4485 O.3     1  ZINC000816269301   -0.3500
     11 C11       -12.6274   -3.8372   54.4444 C.3     1  ZINC000816269301    0.0500
     12 C12       -12.2098   -2.3965   54.7459 C.3     1  ZINC000816269301    0.1200
     13 N13       -11.0957   -2.0183   53.8730 N.am    1  ZINC000816269301   -0.7200
     14 C14       -10.4271   -0.8689   54.0934 C.2     1  ZINC000816269301    0.5600
     15 O15       -10.7476   -0.1470   55.0175 O.2     1  ZINC000816269301   -0.5300
     16 C16        -9.3044   -0.4865   53.2119 C.ar    1  ZINC000816269301   -0.1300
     17 C17        -8.6767    0.7501   53.3728 C.ar    1  ZINC000816269301   -0.0700
     18 C18        -7.6296    1.1014   52.5471 C.ar    1  ZINC000816269301   -0.1200
     19 C19        -7.2004    0.2301   51.5595 C.ar    1  ZINC000816269301   -0.0100
     20 Cl20       -5.8812    0.6791   50.5242 Cl      1  ZINC000816269301   -0.0600
     21 C21        -7.8193   -0.9981   51.3950 C.ar    1  ZINC000816269301   -0.1200
     22 C22        -8.8636   -1.3628   52.2183 C.ar    1  ZINC000816269301   -0.0500
     23 C23       -12.6730   -3.0292   58.0113 C.ar    1  ZINC000816269301   -0.0200
     24 C24       -11.9244   -2.3754   58.9437 C.ar    1  ZINC000816269301   -0.1300
     25 C25       -10.7390   -2.9389   59.4099 C.ar    1  ZINC000816269301    0.1100
     26 H26       -10.3093   -1.4693   62.0434 H       1  ZINC000816269301    0.0900
     27 H27        -8.7702   -0.9843   61.2923 H       1  ZINC000816269301    0.1000
     28 H28       -10.3140   -0.5174   60.5392 H       1  ZINC000816269301    0.1000
     29 H29       -10.7525   -5.8017   57.5678 H       1  ZINC000816269301    0.1600
     30 H30       -11.7482   -4.4813   54.4606 H       1  ZINC000816269301    0.0800
     31 H31       -13.0927   -3.8822   53.4597 H       1  ZINC000816269301    0.1000
     32 H32       -13.0531   -1.7291   54.5686 H       1  ZINC000816269301    0.1000
     33 H33       -11.8979   -2.3190   55.7874 H       1  ZINC000816269301    0.0900
     34 H34       -10.8392   -2.5950   53.1364 H       1  ZINC000816269301    0.4000
     35 H35        -9.0106    1.4304   54.1423 H       1  ZINC000816269301    0.1400
     36 H36        -7.1434    2.0578   52.6705 H       1  ZINC000816269301    0.1400
     37 H37        -7.4804   -1.6733   50.6232 H       1  ZINC000816269301    0.1400
     38 H38        -9.3452   -2.3209   52.0893 H       1  ZINC000816269301    0.1500
     39 H39       -13.5933   -2.5886   57.6573 H       1  ZINC000816269301    0.1500
     40 H40       -12.2536   -1.4202   59.3255 H       1  ZINC000816269301    0.1400
@<TRIPOS>BOND
     1     1     2    1
     2     1    26    1
     3     1    27    1
     4     1    28    1
     5     2    25    1
     6     2     3    1
     7     3     4    2
     8     4     5    1
     9     5    25   ar
    10     5     6   ar
    11     6     7   ar
    12     6    29    1
    13     7     8    1
    14     7    23   ar
    15     8     9    2
    16     8    10    1
    17    10    11    1
    18    11    12    1
    19    11    30    1
    20    11    31    1
    21    12    13    1
    22    12    32    1
    23    12    33    1
    24    13    14   am
    25    13    34    1
    26    14    15    2
    27    14    16    1
    28    16    22   ar
    29    16    17   ar
    30    17    18   ar
    31    17    35    1
    32    18    19   ar
    33    18    36    1
    34    19    20    1
    35    19    21   ar
    36    21    22   ar
    37    21    37    1
    38    22    38    1
    39    23    24   ar
    40    23    39    1
    41    24    25   ar
    42    24    40    1
@<TRIPOS>SUBSTRUCTURE
     1 ZINC000816269301        1 TEMP              0 ****  ****    0 ROOT


##########                                Name:    ZINC000058043838
##########                DOCK_Rotatable_Bonds:                   8
##########                         Heavy_Atoms:                  29
##########                    Molecular_Weight:             412.469
##########                DOCK_Rotatable_Bonds:                   8
##########                       Formal_Charge:           0.0200001
##########                     HBond_Acceptors:                   9
##########                        HBond_Donors:                   0
##########                         Heavy_Atoms:                  29
##########                          Grid_Score:          -37.671928
##########                     Grid_vdw_energy:          -36.744415
##########                      Grid_es_energy:           -0.927514
##########           Internal_energy_repulsive:           10.085419

@<TRIPOS>MOLECULE
ZINC000058043838
 49 51 1 0 0
SMALL
USER_CHARGES


@<TRIPOS>ATOM
      1 C1        -13.8443   -5.2496   57.0131 C.3     1  ZINC000058043838    0.0300
      2 O2        -12.5259   -5.1292   57.5511 O.3     1  ZINC000058043838   -0.3800
      3 C3        -11.8973   -3.8760   57.2743 C.3     1  ZINC000058043838    0.0300
      4 C4        -12.7785   -2.7379   57.7930 C.3     1  ZINC000058043838    0.1000
      5 N5        -11.9471   -1.5638   58.0694 N.am    1  ZINC000058043838   -0.5200
      6 C6        -11.4507   -1.3659   59.3067 C.2     1  ZINC000058043838    0.5100
      7 O7        -11.6935   -2.1590   60.1916 O.2     1  ZINC000058043838   -0.4500
      8 C8        -10.5940   -0.1590   59.5908 C.3     1  ZINC000058043838   -0.0900
      9 C9        -10.0348   -0.2572   60.9867 C.ar    1  ZINC000058043838   -0.1400
     10 C10        -9.1355   -1.2604   61.3136 C.ar    1  ZINC000058043838   -0.0500
     11 C11        -8.6469   -1.3119   62.6103 C.ar    1  ZINC000058043838   -0.1700
     12 C12        -9.0693   -0.3682   63.5271 C.ar    1  ZINC000058043838    0.1300
     13 C13        -8.5444   -0.4143   64.9390 C.3     1  ZINC000058043838   -0.1100
     14 N14        -9.9264    0.5725   63.1808 N.ar    1  ZINC000058043838   -0.4800
     15 C15       -10.4077    0.6550   61.9560 C.ar    1  ZINC000058043838    0.1200
     16 C16       -11.6704   -0.6542   57.0561 C.2     1  ZINC000058043838    0.3100
     17 N17       -10.7867   -0.8192   56.1218 N.2     1  ZINC000058043838   -0.4700
     18 C18       -10.6588    0.1577   55.2349 C.2     1  ZINC000058043838    0.1100
     19 C19        -9.6854    0.0919   54.1177 C.ar    1  ZINC000058043838    0.0400
     20 C20        -8.7747    1.1287   53.9214 C.ar    1  ZINC000058043838   -0.0800
     21 C21        -7.8710    1.0618   52.8805 C.ar    1  ZINC000058043838   -0.0500
     22 C22        -7.8678   -0.0316   52.0330 C.ar    1  ZINC000058043838   -0.0400
     23 N23        -6.8958   -0.0976   50.9184 N.pl3   1  ZINC000058043838    0.0300
     24 O24        -6.1011    0.8096   50.7488 O.2     1  ZINC000058043838   -0.1600
     25 O25        -6.8910   -1.0592   50.1708 O.2     1  ZINC000058043838   -0.1600
     26 C26        -8.7690   -1.0637   52.2234 C.ar    1  ZINC000058043838   -0.0500
     27 C27        -9.6741   -1.0097   53.2638 C.ar    1  ZINC000058043838   -0.1100
     28 C28       -11.4730    1.2127   55.4178 C.2     1  ZINC000058043838   -0.2600
     29 S29       -12.4705    0.8992   56.8363 S.3     1  ZINC000058043838    0.1500
     30 H30       -14.4807   -4.4707   57.4333 H       1  ZINC000058043838    0.0500
     31 H31       -13.8056   -5.1416   55.9292 H       1  ZINC000058043838    0.0400
     32 H32       -14.2521   -6.2281   57.2665 H       1  ZINC000058043838    0.0900
     33 H33       -10.9271   -3.8390   57.7695 H       1  ZINC000058043838    0.0600
     34 H34       -11.7604   -3.7681   56.1983 H       1  ZINC000058043838    0.0800
     35 H35       -13.5256   -2.4851   57.0407 H       1  ZINC000058043838    0.1200
     36 H36       -13.2776   -3.0535   58.7092 H       1  ZINC000058043838    0.1000
     37 H37        -9.7746   -0.1181   58.8732 H       1  ZINC000058043838    0.1100
     38 H38       -11.1983    0.7440   59.5042 H       1  ZINC000058043838    0.1100
     39 H39        -8.8234   -1.9848   60.5759 H       1  ZINC000058043838    0.1300
     40 H40        -7.9451   -2.0800   62.9001 H       1  ZINC000058043838    0.1400
     41 H41        -7.6376    0.1865   65.0092 H       1  ZINC000058043838    0.0800
     42 H42        -9.2972   -0.0167   65.6196 H       1  ZINC000058043838    0.0800
     43 H43        -8.3187   -1.4458   65.2092 H       1  ZINC000058043838    0.0800
     44 H44       -11.1080    1.4394   61.7094 H       1  ZINC000058043838    0.1500
     45 H45        -8.7766    1.9829   54.5822 H       1  ZINC000058043838    0.1600
     46 H46        -7.1652    1.8646   52.7272 H       1  ZINC000058043838    0.1600
     47 H47        -8.7621   -1.9148   51.5587 H       1  ZINC000058043838    0.1600
     48 H48       -10.3770   -1.8162   53.4118 H       1  ZINC000058043838    0.1500
     49 H49       -11.5114    2.0975   54.7998 H       1  ZINC000058043838    0.1800
@<TRIPOS>BOND
     1     1     2    1
     2     1    30    1
     3     1    31    1
     4     1    32    1
     5     2     3    1
     6     3     4    1
     7     3    33    1
     8     3    34    1
     9     4     5    1
    10     4    35    1
    11     4    36    1
    12     5     6   am
    13     5    16    1
    14     6     7    2
    15     6     8    1
    16     8     9    1
    17     8    37    1
    18     8    38    1
    19     9    15   ar
    20     9    10   ar
    21    10    11   ar
    22    10    39    1
    23    11    12   ar
    24    11    40    1
    25    12    13    1
    26    12    14   ar
    27    13    41    1
    28    13    42    1
    29    13    43    1
    30    14    15   ar
    31    15    44    1
    32    16    29    1
    33    16    17    2
    34    17    18    1
    35    18    19    1
    36    18    28    2
    37    19    27   ar
    38    19    20   ar
    39    20    21   ar
    40    20    45    1
    41    21    22   ar
    42    21    46    1
    43    22    23    1
    44    22    26   ar
    45    23    24    2
    46    23    25    2
    47    26    27   ar
    48    26    47    1
    49    27    48    1
    50    28    29    1
    51    28    49    1
@<TRIPOS>SUBSTRUCTURE
     1 ZINC000058043838        1 TEMP              0 ****  ****    0 ROOT


##########                                Name:    ZINC000937331732
##########                DOCK_Rotatable_Bonds:                   6
##########                         Heavy_Atoms:                  24
##########                    Molecular_Weight:              333.35
##########                DOCK_Rotatable_Bonds:                   6
##########                       Formal_Charge:          -0.0299999
##########                     HBond_Acceptors:                  10
##########                        HBond_Donors:                   1
##########                         Heavy_Atoms:                  24
##########                          Grid_Score:          -37.595123
##########                     Grid_vdw_energy:          -35.688503
##########                      Grid_es_energy:           -1.906621
##########           Internal_energy_repulsive:           14.267367

@<TRIPOS>MOLECULE
ZINC000937331732
 43 45 1 0 0
SMALL
USER_CHARGES


@<TRIPOS>ATOM
      1 C1        -13.1011   -4.7099   55.2715 C.3     1  ZINC000937331732    0.0600
      2 N2        -12.2739   -3.5045   55.3663 N.am    1  ZINC000937331732   -0.6100
      3 C3        -11.4676   -3.3227   56.4308 C.2     1  ZINC000937331732    0.5000
      4 O4        -10.7816   -2.3255   56.5086 O.2     1  ZINC000937331732   -0.5200
      5 C5        -11.4182   -4.3584   57.5244 C.3     1  ZINC000937331732    0.1500
      6 N6        -10.5240   -3.9004   58.5907 N.am    1  ZINC000937331732   -0.4400
      7 N7         -9.2839   -4.4578   58.9317 N.2     1  ZINC000937331732   -0.2800
      8 C8         -8.7963   -3.7809   59.9208 C.2     1  ZINC000937331732    0.2600
      9 N9         -9.6789   -2.7820   60.2524 N.am    1  ZINC000937331732   -0.5600
     10 C10        -9.4967   -1.7963   61.3207 C.3     1  ZINC000937331732    0.1000
     11 C11       -10.7388   -2.8601   59.4230 C.2     1  ZINC000937331732    0.6500
     12 O12       -11.7145   -2.1307   59.4288 O.2     1  ZINC000937331732   -0.5500
     13 C13       -12.3232   -2.4968   54.3041 C.3     1  ZINC000937331732    0.1300
     14 H14       -11.8928   -1.5558   54.6468 H       1  ZINC000937331732    0.1200
     15 C15       -11.5929   -3.0036   53.0323 C.3     1  ZINC000937331732   -0.1500
     16 C16       -12.3103   -2.1985   51.9202 C.3     1  ZINC000937331732    0.1000
     17 N17       -13.7181   -2.1301   52.3522 N.am    1  ZINC000937331732   -0.6000
     18 C18       -14.7803   -1.9497   51.5425 C.2     1  ZINC000937331732    0.6200
     19 O19       -15.9018   -1.9083   52.0108 O.2     1  ZINC000937331732   -0.5400
     20 C20       -14.5826   -1.8026   50.0890 C.2     1  ZINC000937331732    0.1400
     21 N21       -15.1972   -2.4948   49.1534 N.2     1  ZINC000937331732   -0.4400
     22 C22       -14.7683   -2.0902   47.9601 C.2     1  ZINC000937331732   -0.0300
     23 C23       -13.8515   -1.1091   48.1460 C.2     1  ZINC000937331732   -0.0200
     24 N24       -13.7341   -0.9202   49.4817 N.pl3   1  ZINC000937331732   -0.5200
     25 C25       -13.7723   -2.2887   53.8158 C.3     1  ZINC000937331732    0.1000
     26 H26       -14.0671   -4.5256   55.7417 H       1  ZINC000937331732    0.0700
     27 H27       -13.2507   -4.9664   54.2227 H       1  ZINC000937331732    0.0800
     28 H28       -12.6012   -5.5346   55.7795 H       1  ZINC000937331732    0.0800
     29 H29       -12.4193   -4.5077   57.9289 H       1  ZINC000937331732    0.1300
     30 H30       -11.0466   -5.2988   57.1176 H       1  ZINC000937331732    0.1300
     31 H31        -7.8503   -3.9704   60.4064 H       1  ZINC000937331732    0.2300
     32 H32        -8.5448   -1.9744   61.8210 H       1  ZINC000937331732    0.1000
     33 H33        -9.5008   -0.7932   60.8941 H       1  ZINC000937331732    0.0800
     34 H34       -10.3088   -1.8877   62.0419 H       1  ZINC000937331732    0.0800
     35 H35       -10.5311   -2.7597   53.0683 H       1  ZINC000937331732    0.0900
     36 H36       -11.7417   -4.0749   52.8971 H       1  ZINC000937331732    0.0800
     37 H37       -11.8876   -1.1967   51.8444 H       1  ZINC000937331732    0.0800
     38 H38       -12.2313   -2.7177   50.9651 H       1  ZINC000937331732    0.1100
     39 H39       -15.0950   -2.4776   47.0063 H       1  ZINC000937331732    0.1800
     40 H40       -13.3176   -0.5757   47.3736 H       1  ZINC000937331732    0.1900
     41 H41       -13.1526   -0.2823   49.9243 H       1  ZINC000937331732    0.4300
     42 H42       -14.3761   -3.1592   54.0722 H       1  ZINC000937331732    0.0800
     43 H43       -14.1969   -1.3935   54.2701 H       1  ZINC000937331732    0.0800
@<TRIPOS>BOND
     1     1     2    1
     2     1    26    1
     3     1    27    1
     4     1    28    1
     5     2     3   am
     6     2    13    1
     7     3     4    2
     8     3     5    1
     9     5     6    1
    10     5    29    1
    11     5    30    1
    12     6    11   am
    13     6     7    1
    14     7     8    2
    15     8     9    1
    16     8    31    1
    17     9    10    1
    18     9    11   am
    19    10    32    1
    20    10    33    1
    21    10    34    1
    22    11    12    2
    23    13    14    1
    24    13    25    1
    25    13    15    1
    26    15    16    1
    27    15    35    1
    28    15    36    1
    29    16    17    1
    30    16    37    1
    31    16    38    1
    32    17    18   am
    33    17    25    1
    34    18    19    2
    35    18    20    1
    36    20    24    1
    37    20    21    2
    38    21    22    1
    39    22    23    2
    40    22    39    1
    41    23    24    1
    42    23    40    1
    43    24    41    1
    44    25    42    1
    45    25    43    1
@<TRIPOS>SUBSTRUCTURE
     1 ZINC000937331732        1 TEMP              0 ****  ****    0 ROOT


##########                                Name:    ZINC001342153661
##########                DOCK_Rotatable_Bonds:                   8
##########                         Heavy_Atoms:                  29
##########                    Molecular_Weight:             395.548
##########                DOCK_Rotatable_Bonds:                   8
##########                       Formal_Charge:          -0.0400005
##########                     HBond_Acceptors:                   6
##########                        HBond_Donors:                   1
##########                         Heavy_Atoms:                  29
##########                          Grid_Score:          -37.581345
##########                     Grid_vdw_energy:          -37.292641
##########                      Grid_es_energy:           -0.288706
##########           Internal_energy_repulsive:           15.934659

@<TRIPOS>MOLECULE
ZINC001342153661
 62 65 1 0 0
SMALL
USER_CHARGES


@<TRIPOS>ATOM
      1 C1        -13.9980   -3.0980   60.9882 C.2     1  ZINC001342153661   -0.1400
      2 C2        -14.0999   -2.4196   59.8721 C.2     1  ZINC001342153661   -0.1600
      3 C3        -15.3920   -2.4344   59.0967 C.3     1  ZINC001342153661   -0.1200
      4 C4        -12.9249   -1.6248   59.3635 C.3     1  ZINC001342153661    0.1500
      5 N5        -11.8692   -2.5405   58.9242 N.pl3   1  ZINC001342153661   -0.4700
      6 C6        -10.7148   -2.8493   59.5890 C.2     1  ZINC001342153661    0.1800
      7 C7        -10.2821   -2.3068   60.9266 C.3     1  ZINC001342153661   -0.0600
      8 C8         -9.4588   -1.0340   60.7188 C.3     1  ZINC001342153661    0.1600
      9 H9         -8.4775   -1.2966   60.3235 H       1  ZINC001342153661    0.1000
     10 O10       -10.1314   -0.1776   59.7934 O.3     1  ZINC001342153661   -0.5400
     11 C11        -9.2955   -0.3206   62.0361 C.ar    1  ZINC001342153661   -0.1700
     12 C12        -8.7038   -0.9622   63.1131 C.ar    1  ZINC001342153661   -0.0600
     13 C13        -8.5740   -0.2666   64.3057 C.ar    1  ZINC001342153661   -0.1700
     14 C14        -9.0355    1.0338   64.3804 C.ar    1  ZINC001342153661    0.1000
     15 N15        -9.5934    1.6127   63.3349 N.ar    1  ZINC001342153661   -0.4800
     16 C16        -9.7285    0.9837   62.1841 C.ar    1  ZINC001342153661    0.1100
     17 N17       -10.0588   -3.7000   58.8517 N.2     1  ZINC001342153661   -0.2700
     18 N18       -10.7149   -3.9479   57.7748 N.2     1  ZINC001342153661   -0.3200
     19 C19       -11.8365   -3.2668   57.7694 C.2     1  ZINC001342153661    0.3600
     20 N20       -12.8015   -3.2765   56.7749 N.3     1  ZINC001342153661   -0.4500
     21 C21       -13.3470   -4.6265   56.5841 C.3     1  ZINC001342153661    0.0500
     22 C22       -14.5062   -4.5733   55.5863 C.3     1  ZINC001342153661   -0.1200
     23 C23       -14.0009   -4.0137   54.2536 C.3     1  ZINC001342153661   -0.1200
     24 C24       -13.3942   -2.6276   54.4884 C.3     1  ZINC001342153661   -0.0800
     25 H25       -14.1637   -1.9519   54.8617 H       1  ZINC001342153661    0.0800
     26 C26       -12.8336   -2.0859   53.1719 C.3     1  ZINC001342153661   -0.0800
     27 C27       -13.9736   -1.8671   52.1465 C.3     1  ZINC001342153661   -0.1200
     28 C28       -13.3738   -0.8073   51.1893 C.3     1  ZINC001342153661   -0.1300
     29 C29       -12.5787    0.1340   52.1176 C.3     1  ZINC001342153661   -0.1300
     30 C30       -12.2352   -0.6790   53.3782 C.3     1  ZINC001342153661   -0.1200
     31 C31       -12.2672   -2.7371   55.5180 C.3     1  ZINC001342153661    0.0800
     32 H32       -14.8400   -3.6676   61.3527 H       1  ZINC001342153661    0.1000
     33 H33       -13.0706   -3.0909   61.5416 H       1  ZINC001342153661    0.1100
     34 H34       -16.0626   -1.6725   59.4936 H       1  ZINC001342153661    0.0700
     35 H35       -15.1877   -2.2271   58.0462 H       1  ZINC001342153661    0.0600
     36 H36       -15.8601   -3.4144   59.1891 H       1  ZINC001342153661    0.0700
     37 H37       -13.2412   -1.0055   58.5241 H       1  ZINC001342153661    0.1000
     38 H38       -12.5443   -0.9878   60.1619 H       1  ZINC001342153661    0.1000
     39 H39       -11.1622   -2.0762   61.5271 H       1  ZINC001342153661    0.1100
     40 H40        -9.6757   -3.0516   61.4420 H       1  ZINC001342153661    0.1000
     41 H41       -11.0344    0.0504   60.0533 H       1  ZINC001342153661    0.3800
     42 H42        -8.3527   -1.9798   63.0256 H       1  ZINC001342153661    0.1300
     43 H43        -8.1184   -0.7354   65.1654 H       1  ZINC001342153661    0.1400
     44 H44        -8.9384    1.5822   65.3057 H       1  ZINC001342153661    0.1600
     45 H45       -10.1906    1.4906   61.3498 H       1  ZINC001342153661    0.1500
     46 H46       -12.5663   -5.2826   56.1991 H       1  ZINC001342153661    0.0500
     47 H47       -13.7066   -5.0111   57.5385 H       1  ZINC001342153661    0.0700
     48 H48       -14.9008   -5.5778   55.4331 H       1  ZINC001342153661    0.0800
     49 H49       -15.2933   -3.9283   55.9770 H       1  ZINC001342153661    0.0700
     50 H50       -13.2413   -4.6792   53.8437 H       1  ZINC001342153661    0.0600
     51 H51       -14.8326   -3.9335   53.5536 H       1  ZINC001342153661    0.0700
     52 H52       -12.0817   -2.7651   52.7703 H       1  ZINC001342153661    0.0800
     53 H53       -14.1939   -2.7906   51.6109 H       1  ZINC001342153661    0.0700
     54 H54       -14.8669   -1.4819   52.6382 H       1  ZINC001342153661    0.0700
     55 H55       -12.7097   -1.2795   50.4653 H       1  ZINC001342153661    0.0600
     56 H56       -14.1673   -0.2602   50.6804 H       1  ZINC001342153661    0.0600
     57 H57       -11.6638    0.4606   51.6233 H       1  ZINC001342153661    0.0600
     58 H58       -13.1881    0.9973   52.3846 H       1  ZINC001342153661    0.0600
     59 H59       -12.6780   -0.2101   54.2570 H       1  ZINC001342153661    0.0600
     60 H60       -11.1537   -0.7468   53.4956 H       1  ZINC001342153661    0.0600
     61 H61       -11.8425   -1.7496   55.6979 H       1  ZINC001342153661    0.0900
     62 H62       -11.4916   -3.4021   55.1380 H       1  ZINC001342153661    0.0500
@<TRIPOS>BOND
     1     1     2    2
     2     1    32    1
     3     1    33    1
     4     2     3    1
     5     2     4    1
     6     3    34    1
     7     3    35    1
     8     3    36    1
     9     4     5    1
    10     4    37    1
    11     4    38    1
    12     5    19    1
    13     5     6    1
    14     6     7    1
    15     6    17    2
    16     7     8    1
    17     7    39    1
    18     7    40    1
    19     8     9    1
    20     8    10    1
    21     8    11    1
    22    10    41    1
    23    11    16   ar
    24    11    12   ar
    25    12    13   ar
    26    12    42    1
    27    13    14   ar
    28    13    43    1
    29    14    15   ar
    30    14    44    1
    31    15    16   ar
    32    16    45    1
    33    17    18    1
    34    18    19    2
    35    19    20    1
    36    20    31    1
    37    20    21    1
    38    21    22    1
    39    21    46    1
    40    21    47    1
    41    22    23    1
    42    22    48    1
    43    22    49    1
    44    23    24    1
    45    23    50    1
    46    23    51    1
    47    24    25    1
    48    24    26    1
    49    24    31    1
    50    26    30    1
    51    26    27    1
    52    26    52    1
    53    27    28    1
    54    27    53    1
    55    27    54    1
    56    28    29    1
    57    28    55    1
    58    28    56    1
    59    29    30    1
    60    29    57    1
    61    29    58    1
    62    30    59    1
    63    30    60    1
    64    31    61    1
    65    31    62    1
@<TRIPOS>SUBSTRUCTURE
     1 ZINC001342153661        1 TEMP              0 ****  ****    0 ROOT


##########                                Name:    ZINC000051488227
##########                DOCK_Rotatable_Bonds:                   8
##########                         Heavy_Atoms:                  30
##########                    Molecular_Weight:             403.478
##########                DOCK_Rotatable_Bonds:                   8
##########                       Formal_Charge:           0.0199996
##########                     HBond_Acceptors:                   5
##########                        HBond_Donors:                   0
##########                         Heavy_Atoms:                  30
##########                          Grid_Score:          -37.577686
##########                     Grid_vdw_energy:          -37.825264
##########                      Grid_es_energy:            0.247579
##########           Internal_energy_repulsive:           22.084881

@<TRIPOS>MOLECULE
ZINC000051488227
 55 58 1 0 0
SMALL
USER_CHARGES


@<TRIPOS>ATOM
      1 O1        -11.1034   -4.7336   56.7923 O.2     1  ZINC000051488227   -0.5000
      2 C2        -11.7416   -3.7192   56.9463 C.2     1  ZINC000051488227    0.4800
      3 O3        -11.3167   -2.7837   57.8102 O.3     1  ZINC000051488227   -0.3400
      4 C4        -10.0920   -3.0656   58.5374 C.3     1  ZINC000051488227    0.1100
      5 C5         -9.9108   -2.0446   59.6309 C.ar    1  ZINC000051488227   -0.1400
      6 C6        -10.3177   -0.7386   59.4300 C.ar    1  ZINC000051488227   -0.0500
      7 C7        -10.1526    0.1993   60.4307 C.ar    1  ZINC000051488227   -0.1500
      8 C8         -9.5784   -0.1704   61.6383 C.ar    1  ZINC000051488227    0.1500
      9 O9         -9.4154    0.7503   62.6246 O.3     1  ZINC000051488227   -0.3100
     10 C10        -8.9112    0.2784   63.8757 C.3     1  ZINC000051488227    0.1100
     11 C11        -8.8712    1.4166   64.8626 C.ar    1  ZINC000051488227    0.1200
     12 C12        -7.9109    1.4255   65.8562 C.ar    1  ZINC000051488227   -0.1500
     13 C13        -7.8826    2.4777   66.7590 C.ar    1  ZINC000051488227   -0.0700
     14 C14        -8.8254    3.4855   66.6276 C.ar    1  ZINC000051488227   -0.1700
     15 C15        -9.7559    3.4085   65.6083 C.ar    1  ZINC000051488227    0.1100
     16 N16        -9.7498    2.3952   64.7647 N.ar    1  ZINC000051488227   -0.4800
     17 C17        -9.1714   -1.4816   61.8376 C.ar    1  ZINC000051488227   -0.2100
     18 C18        -9.3431   -2.4167   60.8354 C.ar    1  ZINC000051488227   -0.0500
     19 C19       -13.0110   -3.5015   56.1639 C.3     1  ZINC000051488227    0.0000
     20 C20       -12.6849   -2.8468   54.8463 C.ar    1  ZINC000051488227   -0.0900
     21 C21       -11.3819   -2.4872   54.5569 C.ar    1  ZINC000051488227   -0.1100
     22 C22       -11.0828   -1.8868   53.3482 C.ar    1  ZINC000051488227   -0.1200
     23 C23       -12.0866   -1.6462   52.4288 C.ar    1  ZINC000051488227   -0.1100
     24 C24       -13.3895   -2.0066   52.7179 C.ar    1  ZINC000051488227   -0.1200
     25 C25       -13.6879   -2.6110   53.9247 C.ar    1  ZINC000051488227   -0.1000
     26 C26       -13.6958   -4.8485   55.9132 C.3     1  ZINC000051488227   -0.1400
     27 C27       -14.0921   -5.4684   57.2557 C.3     1  ZINC000051488227    0.0600
     28 O28       -14.9471   -4.5668   57.9614 O.3     1  ZINC000051488227   -0.3800
     29 C29       -14.3436   -3.3075   58.2653 C.3     1  ZINC000051488227    0.0500
     30 C30       -13.9576   -2.6008   56.9632 C.3     1  ZINC000051488227   -0.1400
     31 H31       -10.1510   -4.0616   58.9763 H       1  ZINC000051488227    0.0800
     32 H32        -9.2445   -3.0197   57.8533 H       1  ZINC000051488227    0.0800
     33 H33       -10.7646   -0.4513   58.4896 H       1  ZINC000051488227    0.1300
     34 H34       -10.4700    1.2194   60.2730 H       1  ZINC000051488227    0.1400
     35 H35        -9.5616   -0.5094   64.2557 H       1  ZINC000051488227    0.0900
     36 H36        -7.9050   -0.1169   63.7360 H       1  ZINC000051488227    0.0900
     37 H37        -7.1919    0.6231   65.9289 H       1  ZINC000051488227    0.1400
     38 H38        -7.1437    2.5111   67.5460 H       1  ZINC000051488227    0.1400
     39 H39        -8.8331    4.3199   67.3132 H       1  ZINC000051488227    0.1400
     40 H40       -10.4940    4.1894   65.4993 H       1  ZINC000051488227    0.1600
     41 H41        -8.7238   -1.7718   62.7767 H       1  ZINC000051488227    0.1300
     42 H42        -9.0267   -3.4378   60.9901 H       1  ZINC000051488227    0.1300
     43 H43       -10.5976   -2.6752   55.2752 H       1  ZINC000051488227    0.1300
     44 H44       -10.0649   -1.6052   53.1224 H       1  ZINC000051488227    0.1300
     45 H45       -11.8530   -1.1763   51.4848 H       1  ZINC000051488227    0.1200
     46 H46       -14.1738   -1.8183   51.9996 H       1  ZINC000051488227    0.1200
     47 H47       -14.7058   -2.8925   54.1505 H       1  ZINC000051488227    0.1300
     48 H48       -14.5875   -4.6963   55.3050 H       1  ZINC000051488227    0.0900
     49 H49       -13.0084   -5.5154   55.3928 H       1  ZINC000051488227    0.0900
     50 H50       -14.6180   -6.4070   57.0817 H       1  ZINC000051488227    0.1000
     51 H51       -13.1962   -5.6578   57.8472 H       1  ZINC000051488227    0.0500
     52 H52       -15.0509   -2.6895   58.8184 H       1  ZINC000051488227    0.1000
     53 H53       -13.4512   -3.4686   58.8699 H       1  ZINC000051488227    0.0700
     54 H54       -13.4573   -1.6603   57.1938 H       1  ZINC000051488227    0.0900
     55 H55       -14.8545   -2.4032   56.3763 H       1  ZINC000051488227    0.0900
@<TRIPOS>BOND
     1     1     2    2
     2     2     3    1
     3     2    19    1
     4     3     4    1
     5     4     5    1
     6     4    31    1
     7     4    32    1
     8     5    18   ar
     9     5     6   ar
    10     6     7   ar
    11     6    33    1
    12     7     8   ar
    13     7    34    1
    14     8     9    1
    15     8    17   ar
    16     9    10    1
    17    10    11    1
    18    10    35    1
    19    10    36    1
    20    11    16   ar
    21    11    12   ar
    22    12    13   ar
    23    12    37    1
    24    13    14   ar
    25    13    38    1
    26    14    15   ar
    27    14    39    1
    28    15    16   ar
    29    15    40    1
    30    17    18   ar
    31    17    41    1
    32    18    42    1
    33    19    30    1
    34    19    20    1
    35    19    26    1
    36    20    25   ar
    37    20    21   ar
    38    21    22   ar
    39    21    43    1
    40    22    23   ar
    41    22    44    1
    42    23    24   ar
    43    23    45    1
    44    24    25   ar
    45    24    46    1
    46    25    47    1
    47    26    27    1
    48    26    48    1
    49    26    49    1
    50    27    28    1
    51    27    50    1
    52    27    51    1
    53    28    29    1
    54    29    30    1
    55    29    52    1
    56    29    53    1
    57    30    54    1
    58    30    55    1
@<TRIPOS>SUBSTRUCTURE
     1 ZINC000051488227        1 TEMP              0 ****  ****    0 ROOT


##########                                Name:    ZINC000444811358
##########                DOCK_Rotatable_Bonds:                  11
##########                         Heavy_Atoms:                  27
##########                    Molecular_Weight:             374.455
##########                DOCK_Rotatable_Bonds:                  11
##########                       Formal_Charge:          0.00999966
##########                     HBond_Acceptors:                   6
##########                        HBond_Donors:                   2
##########                         Heavy_Atoms:                  27
##########                          Grid_Score:          -37.511246
##########                     Grid_vdw_energy:          -37.423306
##########                      Grid_es_energy:           -0.087940
##########           Internal_energy_repulsive:           21.814516

@<TRIPOS>MOLECULE
ZINC000444811358
 54 55 1 0 0
SMALL
USER_CHARGES


@<TRIPOS>ATOM
      1 C1         -8.9894    0.0339   63.3939 C.3     1  ZINC000444811358   -0.1100
      2 C2         -9.4967   -0.8453   62.2800 C.ar    1  ZINC000444811358   -0.1300
      3 C3         -8.9109   -2.0762   62.0515 C.ar    1  ZINC000444811358   -0.0700
      4 C4         -9.3730   -2.8846   61.0310 C.ar    1  ZINC000444811358   -0.1500
      5 C5        -10.4279   -2.4607   60.2336 C.ar    1  ZINC000444811358    0.1700
      6 N6        -10.8975   -3.2783   59.1999 N.am    1  ZINC000444811358   -0.6800
      7 C7        -10.6879   -2.9279   57.9154 C.2     1  ZINC000444811358    0.5200
      8 O8        -10.0922   -1.9039   57.6556 O.2     1  ZINC000444811358   -0.5000
      9 C9        -11.1938   -3.8086   56.8020 C.3     1  ZINC000444811358    0.0200
     10 N10       -12.5962   -3.4784   56.5154 N.3     1  ZINC000444811358   -0.5000
     11 C11       -12.8750   -3.5702   55.0760 C.3     1  ZINC000444811358    0.0200
     12 C12       -12.7295   -2.1866   54.4392 C.3     1  ZINC000444811358    0.1100
     13 H13       -13.5033   -2.0511   53.6837 H       1  ZINC000444811358    0.1200
     14 O14       -12.8657   -1.1820   55.4463 O.3     1  ZINC000444811358   -0.5400
     15 C15       -11.3515   -2.0689   53.7845 C.3     1  ZINC000444811358    0.0300
     16 O16       -11.2402   -0.8018   53.1333 O.3     1  ZINC000444811358   -0.3000
     17 C17       -10.0120   -0.4533   52.6676 C.ar    1  ZINC000444811358    0.1300
     18 C18        -9.6528    0.8844   52.5883 C.ar    1  ZINC000444811358   -0.2100
     19 C19        -8.4035    1.2360   52.1150 C.ar    1  ZINC000444811358   -0.0800
     20 C20        -7.5116    0.2561   51.7201 C.ar    1  ZINC000444811358   -0.1600
     21 C21        -7.8673   -1.0777   51.7978 C.ar    1  ZINC000444811358   -0.0800
     22 C22        -9.1131   -1.4349   52.2762 C.ar    1  ZINC000444811358   -0.1500
     23 C23       -13.5070   -4.3375   57.2838 C.3     1  ZINC000444811358    0.0700
     24 C24       -14.9166   -3.7433   57.2524 C.3     1  ZINC000444811358   -0.1400
     25 C25       -13.5298   -5.7374   56.6667 C.3     1  ZINC000444811358   -0.1900
     26 C26       -11.0161   -1.2241   60.4641 C.ar    1  ZINC000444811358   -0.1500
     27 C27       -10.5529   -0.4209   61.4905 C.ar    1  ZINC000444811358    0.1200
     28 F28       -11.1239    0.7825   61.7163 F       1  ZINC000444811358   -0.1300
     29 H29        -9.5301   -0.1948   64.3122 H       1  ZINC000444811358    0.0700
     30 H30        -7.9252   -0.1474   63.5439 H       1  ZINC000444811358    0.0700
     31 H31        -9.1462    1.0801   63.1311 H       1  ZINC000444811358    0.0700
     32 H32        -8.0905   -2.4063   62.6715 H       1  ZINC000444811358    0.1400
     33 H33        -8.9139   -3.8458   60.8533 H       1  ZINC000444811358    0.1300
     34 H34       -11.3740   -4.0973   59.4076 H       1  ZINC000444811358    0.4100
     35 H35       -10.5921   -3.6455   55.9079 H       1  ZINC000444811358    0.1300
     36 H36       -11.1208   -4.8535   57.1035 H       1  ZINC000444811358    0.0700
     37 H37       -12.1694   -4.2596   54.6124 H       1  ZINC000444811358    0.0500
     38 H38       -13.8913   -3.9344   54.9252 H       1  ZINC000444811358    0.1000
     39 H39       -12.8217   -0.2772   55.1078 H       1  ZINC000444811358    0.3700
     40 H40       -10.5781   -2.1543   54.5478 H       1  ZINC000444811358    0.0600
     41 H41       -11.2282   -2.8662   53.0516 H       1  ZINC000444811358    0.0700
     42 H42       -10.3495    1.6502   52.8960 H       1  ZINC000444811358    0.1300
     43 H43        -8.1234    2.2772   52.0530 H       1  ZINC000444811358    0.1200
     44 H44        -6.5355    0.5330   51.3500 H       1  ZINC000444811358    0.1200
     45 H45        -7.1689   -1.8413   51.4884 H       1  ZINC000444811358    0.1300
     46 H46        -9.3906   -2.4769   52.3366 H       1  ZINC000444811358    0.1300
     47 H47       -13.1623   -4.4010   58.3160 H       1  ZINC000444811358    0.0900
     48 H48       -15.3131   -3.8019   56.2387 H       1  ZINC000444811358    0.0500
     49 H49       -15.5623   -4.3040   57.9281 H       1  ZINC000444811358    0.0600
     50 H50       -14.8785   -2.7007   57.5678 H       1  ZINC000444811358    0.0700
     51 H51       -12.5256   -6.1607   56.6891 H       1  ZINC000444811358    0.0500
     52 H52       -14.2056   -6.3747   57.2369 H       1  ZINC000444811358    0.0700
     53 H53       -13.8744   -5.6740   55.6347 H       1  ZINC000444811358    0.0600
     54 H54       -11.8364   -0.8917   59.8453 H       1  ZINC000444811358    0.1500
@<TRIPOS>BOND
     1     1     2    1
     2     1    29    1
     3     1    30    1
     4     1    31    1
     5     2    27   ar
     6     2     3   ar
     7     3     4   ar
     8     3    32    1
     9     4     5   ar
    10     4    33    1
    11     5     6    1
    12     5    26   ar
    13     6     7   am
    14     6    34    1
    15     7     8    2
    16     7     9    1
    17     9    10    1
    18     9    35    1
    19     9    36    1
    20    10    11    1
    21    10    23    1
    22    11    12    1
    23    11    37    1
    24    11    38    1
    25    12    13    1
    26    12    14    1
    27    12    15    1
    28    14    39    1
    29    15    16    1
    30    15    40    1
    31    15    41    1
    32    16    17    1
    33    17    22   ar
    34    17    18   ar
    35    18    19   ar
    36    18    42    1
    37    19    20   ar
    38    19    43    1
    39    20    21   ar
    40    20    44    1
    41    21    22   ar
    42    21    45    1
    43    22    46    1
    44    23    24    1
    45    23    25    1
    46    23    47    1
    47    24    48    1
    48    24    49    1
    49    24    50    1
    50    25    51    1
    51    25    52    1
    52    25    53    1
    53    26    27   ar
    54    26    54    1
    55    27    28    1
@<TRIPOS>SUBSTRUCTURE
     1 ZINC000444811358        1 TEMP              0 ****  ****    0 ROOT


##########                                Name:    ZINC000534799364
##########                DOCK_Rotatable_Bonds:                   4
##########                         Heavy_Atoms:                  29
##########                    Molecular_Weight:             391.491
##########                DOCK_Rotatable_Bonds:                   4
##########                       Formal_Charge:           0.0199998
##########                     HBond_Acceptors:                   6
##########                        HBond_Donors:                   0
##########                         Heavy_Atoms:                  29
##########                          Grid_Score:          -37.488064
##########                     Grid_vdw_energy:          -36.893814
##########                      Grid_es_energy:           -0.594248
##########           Internal_energy_repulsive:            9.969704

@<TRIPOS>MOLECULE
ZINC000534799364
 55 59 1 0 0
SMALL
USER_CHARGES


@<TRIPOS>ATOM
      1 C1          1.5238    1.8973   44.0482 C.3     1  ZINC000534799364   -0.1100
      2 C2          0.3815    0.9270   43.8910 C.ar    1  ZINC000534799364   -0.0200
      3 C3          0.2718    0.1377   42.7583 C.ar    1  ZINC000534799364   -0.1700
      4 C4         -0.7896   -0.7416   42.6480 C.ar    1  ZINC000534799364    0.1000
      5 N5         -1.6932   -0.8364   43.6035 N.ar    1  ZINC000534799364   -0.4800
      6 C6         -1.6267   -0.1041   44.6975 C.ar    1  ZINC000534799364    0.0800
      7 C7         -0.5870    0.7977   44.8840 C.ar    1  ZINC000534799364    0.0300
      8 N8         -0.5197    1.5718   46.0450 N.3     1  ZINC000534799364   -0.5000
      9 C9         -0.9357    0.7947   47.2209 C.3     1  ZINC000534799364    0.0600
     10 C10        -0.7723    1.6510   48.4788 C.3     1  ZINC000534799364    0.0600
     11 N11        -1.5795    2.8719   48.3455 N.3     1  ZINC000534799364   -0.5300
     12 C12        -1.5086    3.6858   49.5664 C.3     1  ZINC000534799364    0.1400
     13 C13        -2.5182    3.1819   50.5653 C.2     1  ZINC000534799364    0.1100
     14 N14        -3.6192    2.5351   50.2821 N.2     1  ZINC000534799364   -0.2800
     15 N15        -4.2777    2.2448   51.4830 N.pl3   1  ZINC000534799364   -0.3100
     16 C16        -5.4952    1.5607   51.6122 C.ar    1  ZINC000534799364    0.1500
     17 C17        -5.6840    0.3490   50.9615 C.ar    1  ZINC000534799364   -0.1000
     18 C18        -6.8836   -0.3232   51.0899 C.ar    1  ZINC000534799364   -0.1300
     19 C19        -7.8977    0.2108   51.8672 C.ar    1  ZINC000534799364    0.1000
     20 F20        -9.0703   -0.4483   51.9920 F       1  ZINC000534799364   -0.1300
     21 C21        -7.7111    1.4194   52.5171 C.ar    1  ZINC000534799364   -0.1300
     22 C22        -6.5108    2.0917   52.3957 C.ar    1  ZINC000534799364   -0.0800
     23 C23        -3.5307    2.7416   52.4982 C.2     1  ZINC000534799364    0.0500
     24 C24        -2.4354    3.3206   51.9580 C.2     1  ZINC000534799364   -0.2200
     25 C25        -1.5566    3.8968   53.0474 C.3     1  ZINC000534799364   -0.0400
     26 C26        -2.4646    3.9753   54.2941 C.3     1  ZINC000534799364   -0.1200
     27 C27        -3.5005    2.8655   54.0060 C.3     1  ZINC000534799364   -0.0500
     28 C28        -1.1634    3.6489   47.1696 C.3     1  ZINC000534799364    0.0600
     29 C29        -1.3268    2.7926   45.9117 C.3     1  ZINC000534799364    0.0600
     30 H30         2.3245    1.4266   44.6187 H       1  ZINC000534799364    0.0800
     31 H31         1.8972    2.1815   43.0644 H       1  ZINC000534799364    0.0600
     32 H32         1.1759    2.7857   44.5754 H       1  ZINC000534799364    0.0800
     33 H33         1.0067    0.2084   41.9700 H       1  ZINC000534799364    0.1400
     34 H34        -0.8800   -1.3591   41.7665 H       1  ZINC000534799364    0.1600
     35 H35        -2.3860   -0.2095   45.4584 H       1  ZINC000534799364    0.1500
     36 H36        -1.9804    0.5028   47.1129 H       1  ZINC000534799364    0.0500
     37 H37        -0.3153   -0.0975   47.3052 H       1  ZINC000534799364    0.0800
     38 H38        -1.1076    1.0867   49.3491 H       1  ZINC000534799364    0.0900
     39 H39         0.2767    1.9202   48.6018 H       1  ZINC000534799364    0.0500
     40 H40        -0.5082    3.6142   49.9932 H       1  ZINC000534799364    0.1000
     41 H41        -1.7262    4.7257   49.3228 H       1  ZINC000534799364    0.0500
     42 H42        -4.8934   -0.0675   50.3549 H       1  ZINC000534799364    0.1400
     43 H43        -7.0310   -1.2656   50.5835 H       1  ZINC000534799364    0.1500
     44 H44        -8.5033    1.8345   53.1226 H       1  ZINC000534799364    0.1500
     45 H45        -6.3656    3.0340   52.9029 H       1  ZINC000534799364    0.1400
     46 H46        -0.7085    3.2390   53.2374 H       1  ZINC000534799364    0.0800
     47 H47        -1.2100    4.8917   52.7678 H       1  ZINC000534799364    0.0700
     48 H48        -1.9013    3.7543   55.2007 H       1  ZINC000534799364    0.0800
     49 H49        -2.9456    4.9509   54.3645 H       1  ZINC000534799364    0.0800
     50 H50        -4.4821    3.1571   54.3795 H       1  ZINC000534799364    0.0800
     51 H51        -3.1855    1.9260   54.4602 H       1  ZINC000534799364    0.0900
     52 H52        -1.7839    4.5412   47.0853 H       1  ZINC000534799364    0.0900
     53 H53        -0.1188    3.9408   47.2777 H       1  ZINC000534799364    0.0500
     54 H54        -0.9915    3.3570   45.0415 H       1  ZINC000534799364    0.0800
     55 H55        -2.3758    2.5233   45.7888 H       1  ZINC000534799364    0.0500
@<TRIPOS>BOND
     1     1     2    1
     2     1    30    1
     3     1    31    1
     4     1    32    1
     5     2     7   ar
     6     2     3   ar
     7     3     4   ar
     8     3    33    1
     9     4     5   ar
    10     4    34    1
    11     5     6   ar
    12     6     7   ar
    13     6    35    1
    14     7     8    1
    15     8    29    1
    16     8     9    1
    17     9    10    1
    18     9    36    1
    19     9    37    1
    20    10    11    1
    21    10    38    1
    22    10    39    1
    23    11    12    1
    24    11    28    1
    25    12    13    1
    26    12    40    1
    27    12    41    1
    28    13    24    1
    29    13    14    2
    30    14    15    1
    31    15    16    1
    32    15    23    1
    33    16    22   ar
    34    16    17   ar
    35    17    18   ar
    36    17    42    1
    37    18    19   ar
    38    18    43    1
    39    19    20    1
    40    19    21   ar
    41    21    22   ar
    42    21    44    1
    43    22    45    1
    44    23    27    1
    45    23    24    2
    46    24    25    1
    47    25    26    1
    48    25    46    1
    49    25    47    1
    50    26    27    1
    51    26    48    1
    52    26    49    1
    53    27    50    1
    54    27    51    1
    55    28    29    1
    56    28    52    1
    57    28    53    1
    58    29    54    1
    59    29    55    1
@<TRIPOS>SUBSTRUCTURE
     1 ZINC000534799364        1 TEMP              0 ****  ****    0 ROOT


##########                                Name:    ZINC000435005159
##########                DOCK_Rotatable_Bonds:                  12
##########                         Heavy_Atoms:                  30
##########                    Molecular_Weight:             401.508
##########                DOCK_Rotatable_Bonds:                  12
##########                       Formal_Charge:          -0.0399985
##########                     HBond_Acceptors:                   5
##########                        HBond_Donors:                   2
##########                         Heavy_Atoms:                  30
##########                          Grid_Score:          -37.472816
##########                     Grid_vdw_energy:          -37.410534
##########                      Grid_es_energy:           -0.062282
##########           Internal_energy_repulsive:           11.999535

@<TRIPOS>MOLECULE
ZINC000435005159
 57 59 1 0 0
SMALL
USER_CHARGES


@<TRIPOS>ATOM
      1 O1        -14.0677   -5.0456   57.6994 O.2     1  ZINC000435005159   -0.5300
      2 C2        -14.2355   -3.8711   57.4475 C.2     1  ZINC000435005159    0.5200
      3 C3        -15.5293   -3.1969   57.8250 C.3     1  ZINC000435005159   -0.1400
      4 C4        -15.2792   -2.2220   58.9774 C.3     1  ZINC000435005159   -0.1200
      5 C5        -14.7307   -2.9876   60.1831 C.3     1  ZINC000435005159    0.1200
      6 N6        -14.5359   -2.0619   61.3018 N.am    1  ZINC000435005159   -0.7200
      7 C7        -13.3337   -1.4850   61.4976 C.2     1  ZINC000435005159    0.5600
      8 O8        -12.4106   -1.7339   60.7468 O.2     1  ZINC000435005159   -0.5300
      9 C9        -13.1375   -0.5496   62.6254 C.ar    1  ZINC000435005159   -0.1900
     10 C10       -14.1872   -0.2682   63.5077 C.ar    1  ZINC000435005159   -0.0200
     11 C11       -13.9515    0.6142   64.5475 C.ar    1  ZINC000435005159   -0.1800
     12 C12       -12.6985    1.1844   64.6806 C.ar    1  ZINC000435005159    0.1200
     13 N13       -11.7276    0.9008   63.8332 N.ar    1  ZINC000435005159   -0.4900
     14 C14       -11.9009    0.0636   62.8319 C.ar    1  ZINC000435005159    0.1400
     15 N15       -13.2627   -3.1675   56.8351 N.am    1  ZINC000435005159   -0.7300
     16 C16       -12.0049   -3.8229   56.4682 C.3     1  ZINC000435005159    0.1900
     17 H17       -12.1620   -4.8996   56.4017 H       1  ZINC000435005159    0.1000
     18 C18       -11.5295   -3.2925   55.1140 C.3     1  ZINC000435005159   -0.1200
     19 C19       -12.1532   -4.1254   53.9925 C.3     1  ZINC000435005159   -0.0800
     20 C20       -12.9525   -3.2269   53.0843 C.ar    1  ZINC000435005159   -0.0800
     21 C21       -12.3045   -2.3871   52.1979 C.ar    1  ZINC000435005159   -0.1200
     22 C22       -13.0378   -1.5630   51.3648 C.ar    1  ZINC000435005159   -0.1200
     23 C23       -14.4190   -1.5789   51.4178 C.ar    1  ZINC000435005159   -0.1200
     24 C24       -15.0670   -2.4194   52.3036 C.ar    1  ZINC000435005159   -0.1200
     25 C25       -14.3338   -3.2467   53.1337 C.ar    1  ZINC000435005159   -0.1200
     26 C26       -10.9620   -3.5312   57.5162 C.ar    1  ZINC000435005159   -0.1000
     27 C27       -10.4208   -4.5640   58.2587 C.ar    1  ZINC000435005159   -0.1100
     28 C28        -9.4642   -4.2965   59.2201 C.ar    1  ZINC000435005159   -0.1200
     29 C29        -9.0484   -2.9963   59.4385 C.ar    1  ZINC000435005159   -0.1200
     30 C30        -9.5891   -1.9638   58.6953 C.ar    1  ZINC000435005159   -0.1200
     31 C31       -10.5425   -2.2318   57.7310 C.ar    1  ZINC000435005159   -0.1000
     32 H32       -15.9190   -2.6512   56.9655 H       1  ZINC000435005159    0.1000
     33 H33       -16.2538   -3.9494   58.1365 H       1  ZINC000435005159    0.1000
     34 H34       -14.5558   -1.4687   58.6654 H       1  ZINC000435005159    0.0800
     35 H35       -16.2153   -1.7353   59.2511 H       1  ZINC000435005159    0.0800
     36 H36       -15.4384   -3.7641   60.4731 H       1  ZINC000435005159    0.0700
     37 H37       -13.7770   -3.4450   59.9198 H       1  ZINC000435005159    0.0700
     38 H38       -15.2721   -1.8642   61.9017 H       1  ZINC000435005159    0.4000
     39 H39       -15.1563   -0.7277   63.3800 H       1  ZINC000435005159    0.1500
     40 H40       -14.7378    0.8552   65.2475 H       1  ZINC000435005159    0.1500
     41 H41       -12.5118    1.8733   65.4912 H       1  ZINC000435005159    0.1600
     42 H42       -11.0817   -0.1435   62.1593 H       1  ZINC000435005159    0.1600
     43 H43       -13.3955   -2.2272   56.6371 H       1  ZINC000435005159    0.4000
     44 H44       -11.8328   -2.2512   55.0050 H       1  ZINC000435005159    0.0700
     45 H45       -10.4432   -3.3623   55.0575 H       1  ZINC000435005159    0.0800
     46 H46       -11.3641   -4.6120   53.4194 H       1  ZINC000435005159    0.0700
     47 H47       -12.8087   -4.8823   54.4235 H       1  ZINC000435005159    0.0700
     48 H48       -11.2254   -2.3745   52.1565 H       1  ZINC000435005159    0.1200
     49 H49       -12.5315   -0.9062   50.6728 H       1  ZINC000435005159    0.1200
     50 H50       -14.9918   -0.9345   50.7674 H       1  ZINC000435005159    0.1200
     51 H51       -16.1461   -2.4317   52.3453 H       1  ZINC000435005159    0.1200
     52 H52       -14.8401   -3.9033   53.8257 H       1  ZINC000435005159    0.1200
     53 H53       -10.7456   -5.5798   58.0881 H       1  ZINC000435005159    0.1200
     54 H54        -9.0419   -5.1033   59.8008 H       1  ZINC000435005159    0.1200
     55 H55        -8.3016   -2.7873   60.1900 H       1  ZINC000435005159    0.1200
     56 H56        -9.2645   -0.9480   58.8661 H       1  ZINC000435005159    0.1200
     57 H57       -10.9649   -1.4250   57.1503 H       1  ZINC000435005159    0.1200
@<TRIPOS>BOND
     1     1     2    2
     2     2     3    1
     3     2    15   am
     4     3     4    1
     5     3    32    1
     6     3    33    1
     7     4     5    1
     8     4    34    1
     9     4    35    1
    10     5     6    1
    11     5    36    1
    12     5    37    1
    13     6     7   am
    14     6    38    1
    15     7     8    2
    16     7     9    1
    17     9    14   ar
    18     9    10   ar
    19    10    11   ar
    20    10    39    1
    21    11    12   ar
    22    11    40    1
    23    12    13   ar
    24    12    41    1
    25    13    14   ar
    26    14    42    1
    27    15    16    1
    28    15    43    1
    29    16    17    1
    30    16    18    1
    31    16    26    1
    32    18    19    1
    33    18    44    1
    34    18    45    1
    35    19    20    1
    36    19    46    1
    37    19    47    1
    38    20    25   ar
    39    20    21   ar
    40    21    22   ar
    41    21    48    1
    42    22    23   ar
    43    22    49    1
    44    23    24   ar
    45    23    50    1
    46    24    25   ar
    47    24    51    1
    48    25    52    1
    49    26    31   ar
    50    26    27   ar
    51    27    28   ar
    52    27    53    1
    53    28    29   ar
    54    28    54    1
    55    29    30   ar
    56    29    55    1
    57    30    31   ar
    58    30    56    1
    59    31    57    1
@<TRIPOS>SUBSTRUCTURE
     1 ZINC000435005159        1 TEMP              0 ****  ****    0 ROOT


##########                                Name:    ZINC000114394234
##########                DOCK_Rotatable_Bonds:                   9
##########                         Heavy_Atoms:                  27
##########                    Molecular_Weight:             365.392
##########                DOCK_Rotatable_Bonds:                   9
##########                       Formal_Charge:           0.0300002
##########                     HBond_Acceptors:                   8
##########                        HBond_Donors:                   3
##########                         Heavy_Atoms:                  27
##########                          Grid_Score:          -37.454327
##########                     Grid_vdw_energy:          -34.151829
##########                      Grid_es_energy:           -3.302499
##########           Internal_energy_repulsive:           10.720981

@<TRIPOS>MOLECULE
ZINC000114394234
 46 48 1 0 0
SMALL
USER_CHARGES


@<TRIPOS>ATOM
      1 C1        -10.3348    2.5283   58.5566 C.3     1  ZINC000114394234   -0.1600
      2 C2         -9.2995    1.9620   57.5828 C.3     1  ZINC000114394234    0.1300
      3 H3         -9.4915    2.3498   56.5823 H       1  ZINC000114394234    0.1200
      4 N4         -7.9565    2.3606   58.0116 N.am    1  ZINC000114394234   -0.7100
      5 C5         -6.9917    2.5729   57.0948 C.2     1  ZINC000114394234    0.5200
      6 O6         -7.2348    2.4325   55.9149 O.2     1  ZINC000114394234   -0.5100
      7 C7         -5.6108    2.9847   57.5357 C.3     1  ZINC000114394234    0.0400
      8 O8         -4.6531    2.5548   56.5660 O.3     1  ZINC000114394234   -0.2900
      9 C9         -3.3502    2.8540   56.8108 C.ar    1  ZINC000114394234    0.1300
     10 C10        -3.0011    3.5503   57.9589 C.ar    1  ZINC000114394234   -0.2100
     11 C11        -1.6759    3.8528   58.2057 C.ar    1  ZINC000114394234   -0.0800
     12 C12        -0.6980    3.4627   57.3095 C.ar    1  ZINC000114394234   -0.1600
     13 C13        -1.0435    2.7691   56.1643 C.ar    1  ZINC000114394234   -0.0800
     14 C14        -2.3666    2.4587   55.9160 C.ar    1  ZINC000114394234   -0.1500
     15 C15        -9.3958    0.4582   57.5657 C.2     1  ZINC000114394234    0.5100
     16 O16        -8.9350   -0.1684   56.6349 O.2     1  ZINC000114394234   -0.5100
     17 N17        -9.9939   -0.1905   58.5844 N.am    1  ZINC000114394234   -0.6700
     18 C18       -10.0833   -1.5869   58.5684 C.ar    1  ZINC000114394234    0.1300
     19 C19        -9.2208   -2.3473   59.3482 C.ar    1  ZINC000114394234   -0.1200
     20 C20        -9.3061   -3.7268   59.3350 C.ar    1  ZINC000114394234   -0.1000
     21 C21       -10.2482   -4.3566   58.5469 C.ar    1  ZINC000114394234   -0.0900
     22 C22       -11.1173   -3.6016   57.7610 C.ar    1  ZINC000114394234    0.0000
     23 C23       -12.1304   -4.2773   56.9126 C.2     1  ZINC000114394234    0.2700
     24 N24       -13.0189   -5.1523   57.3298 N.2     1  ZINC000114394234   -0.3000
     25 N25       -13.7698   -5.5327   56.2057 N.pl3   1  ZINC000114394234   -0.4800
     26 C26       -13.2715   -4.8450   55.1624 C.2     1  ZINC000114394234    0.2700
     27 N27       -12.2950   -4.0924   55.5959 N.2     1  ZINC000114394234   -0.5300
     28 C28       -11.0366   -2.2121   57.7786 C.ar    1  ZINC000114394234   -0.0800
     29 H29       -10.1428    2.1406   59.5570 H       1  ZINC000114394234    0.0700
     30 H30       -10.2652    3.6160   58.5689 H       1  ZINC000114394234    0.0800
     31 H31       -11.3340    2.2317   58.2375 H       1  ZINC000114394234    0.0800
     32 H32        -7.7617    2.4717   58.9553 H       1  ZINC000114394234    0.4100
     33 H33        -5.5685    4.0696   57.6320 H       1  ZINC000114394234    0.1000
     34 H34        -5.3846    2.5255   58.4980 H       1  ZINC000114394234    0.1000
     35 H35        -3.7647    3.8559   58.6589 H       1  ZINC000114394234    0.1300
     36 H36        -1.4037    4.3948   59.0993 H       1  ZINC000114394234    0.1300
     37 H37         0.3373    3.7004   57.5040 H       1  ZINC000114394234    0.1300
     38 H38        -0.2779    2.4657   55.4656 H       1  ZINC000114394234    0.1300
     39 H39        -2.6359    1.9169   55.0214 H       1  ZINC000114394234    0.1300
     40 H40       -10.3624    0.3107   59.3287 H       1  ZINC000114394234    0.4200
     41 H41        -8.4816   -1.8593   59.9660 H       1  ZINC000114394234    0.1300
     42 H42        -8.6334   -4.3136   59.9429 H       1  ZINC000114394234    0.1400
     43 H43       -10.3117   -5.4347   58.5387 H       1  ZINC000114394234    0.1400
     44 H44       -14.5035   -6.1669   56.1855 H       1  ZINC000114394234    0.4400
     45 H45       -13.6216   -4.9015   54.1422 H       1  ZINC000114394234    0.2300
     46 H46       -11.7078   -1.6229   57.1715 H       1  ZINC000114394234    0.1500
@<TRIPOS>BOND
     1     1     2    1
     2     1    29    1
     3     1    30    1
     4     1    31    1
     5     2     3    1
     6     2     4    1
     7     2    15    1
     8     4     5   am
     9     4    32    1
    10     5     6    2
    11     5     7    1
    12     7     8    1
    13     7    33    1
    14     7    34    1
    15     8     9    1
    16     9    14   ar
    17     9    10   ar
    18    10    11   ar
    19    10    35    1
    20    11    12   ar
    21    11    36    1
    22    12    13   ar
    23    12    37    1
    24    13    14   ar
    25    13    38    1
    26    14    39    1
    27    15    16    2
    28    15    17   am
    29    17    18    1
    30    17    40    1
    31    18    28   ar
    32    18    19   ar
    33    19    20   ar
    34    19    41    1
    35    20    21   ar
    36    20    42    1
    37    21    22   ar
    38    21    43    1
    39    22    23    1
    40    22    28   ar
    41    23    27    1
    42    23    24    2
    43    24    25    1
    44    25    26    1
    45    25    44    1
    46    26    27    2
    47    26    45    1
    48    28    46    1
@<TRIPOS>SUBSTRUCTURE
     1 ZINC000114394234        1 TEMP              0 ****  ****    0 ROOT


##########                                Name:    ZINC000013809319
##########                DOCK_Rotatable_Bonds:                  10
##########                         Heavy_Atoms:                  30
##########                    Molecular_Weight:             407.469
##########                DOCK_Rotatable_Bonds:                  10
##########                       Formal_Charge:         -0.00999978
##########                     HBond_Acceptors:                   7
##########                        HBond_Donors:                   1
##########                         Heavy_Atoms:                  30
##########                          Grid_Score:          -37.409302
##########                     Grid_vdw_energy:          -35.969601
##########                      Grid_es_energy:           -1.439701
##########           Internal_energy_repulsive:           15.709208

@<TRIPOS>MOLECULE
ZINC000013809319
 55 57 1 0 0
SMALL
USER_CHARGES


@<TRIPOS>ATOM
      1 C1         -7.5513    1.2153   65.0965 C.3     1  ZINC000013809319   -0.1500
      2 C2         -8.8631    0.9858   64.3431 C.3     1  ZINC000013809319    0.0500
      3 O3         -9.0310   -0.4112   64.0937 O.3     1  ZINC000013809319   -0.3100
      4 C4         -9.4902   -0.7675   62.8666 C.ar    1  ZINC000013809319    0.1500
      5 C5        -10.7411   -0.3365   62.4427 C.ar    1  ZINC000013809319   -0.2200
      6 C6        -11.2101   -0.6958   61.1979 C.ar    1  ZINC000013809319   -0.0300
      7 C7        -10.4268   -1.4936   60.3624 C.ar    1  ZINC000013809319   -0.1100
      8 C8        -10.9269   -1.8811   59.0244 C.2     1  ZINC000013809319    0.2300
      9 C9        -11.0332   -3.2187   58.6795 C.2     1  ZINC000013809319   -0.2900
     10 C10       -11.5133   -3.5424   57.3986 C.2     1  ZINC000013809319    0.5300
     11 O11       -11.6240   -4.7071   57.0518 O.2     1  ZINC000013809319   -0.5400
     12 N12       -11.8499   -2.5400   56.5601 N.am    1  ZINC000013809319   -0.5100
     13 C13       -12.3535   -2.8492   55.2196 C.3     1  ZINC000013809319    0.0700
     14 C14       -11.2307   -2.7302   54.2215 C.2     1  ZINC000013809319    0.5000
     15 O15       -10.4132   -3.6202   54.1194 O.2     1  ZINC000013809319   -0.5200
     16 N16       -11.1350   -1.6347   53.4423 N.am    1  ZINC000013809319   -0.7200
     17 C17       -10.0445   -1.5198   52.4707 C.3     1  ZINC000013809319    0.1300
     18 C18        -9.0015   -0.5279   52.9897 C.3     1  ZINC000013809319   -0.0800
     19 C19        -9.1763    0.7960   52.2913 C.ar    1  ZINC000013809319   -0.1200
     20 C20       -10.4219    1.3906   52.2385 C.ar    1  ZINC000013809319   -0.0800
     21 C21       -10.5829    2.6051   51.5971 C.ar    1  ZINC000013809319   -0.1500
     22 C22        -9.4982    3.2275   51.0080 C.ar    1  ZINC000013809319   -0.0800
     23 C23        -8.2500    2.6371   51.0584 C.ar    1  ZINC000013809319   -0.2100
     24 C24        -8.0848    1.4214   51.7056 C.ar    1  ZINC000013809319    0.1300
     25 O25        -6.8583    0.8386   51.7566 O.3     1  ZINC000013809319   -0.3100
     26 C26        -5.7905    1.5148   51.0896 C.3     1  ZINC000013809319    0.0300
     27 C27       -11.7255   -1.2555   56.9502 C.2     1  ZINC000013809319    0.3900
     28 N28       -11.2867   -0.9377   58.1365 N.2     1  ZINC000013809319   -0.5300
     29 C29        -9.1705   -1.9247   60.7914 C.ar    1  ZINC000013809319   -0.0500
     30 C30        -8.7056   -1.5573   62.0354 C.ar    1  ZINC000013809319   -0.1600
     31 H31        -7.5778    0.6777   66.0444 H       1  ZINC000013809319    0.0700
     32 H32        -6.7184    0.8508   64.4953 H       1  ZINC000013809319    0.0700
     33 H33        -7.4232    2.2809   65.2867 H       1  ZINC000013809319    0.0800
     34 H34        -9.6959    1.3503   64.9444 H       1  ZINC000013809319    0.0600
     35 H35        -8.8365    1.5234   63.3953 H       1  ZINC000013809319    0.0600
     36 H36       -11.3469    0.2805   63.0900 H       1  ZINC000013809319    0.1300
     37 H37       -12.1828   -0.3607   60.8692 H       1  ZINC000013809319    0.1400
     38 H38       -10.7536   -3.9939   59.3777 H       1  ZINC000013809319    0.1600
     39 H39       -12.7466   -3.8657   55.2046 H       1  ZINC000013809319    0.1300
     40 H40       -13.1470   -2.1487   54.9590 H       1  ZINC000013809319    0.1300
     41 H41       -11.7882   -0.9223   53.5247 H       1  ZINC000013809319    0.4000
     42 H42        -9.5794   -2.4954   52.3296 H       1  ZINC000013809319    0.0700
     43 H43       -10.4413   -1.1652   51.5195 H       1  ZINC000013809319    0.0700
     44 H44        -9.1316   -0.3923   54.0634 H       1  ZINC000013809319    0.0800
     45 H45        -8.0019   -0.9144   52.7909 H       1  ZINC000013809319    0.0800
     46 H46       -11.2708    0.9063   52.6980 H       1  ZINC000013809319    0.1300
     47 H47       -11.5578    3.0681   51.5563 H       1  ZINC000013809319    0.1300
     48 H48        -9.6265    4.1759   50.5075 H       1  ZINC000013809319    0.1300
     49 H49        -7.4030    3.1236   50.5977 H       1  ZINC000013809319    0.1300
     50 H50        -5.6617    2.5066   51.5228 H       1  ZINC000013809319    0.0600
     51 H51        -4.8692    0.9443   51.2078 H       1  ZINC000013809319    0.1000
     52 H52        -6.0261    1.6090   50.0296 H       1  ZINC000013809319    0.0600
     53 H53       -12.0003   -0.4687   56.2634 H       1  ZINC000013809319    0.2000
     54 H54        -8.5618   -2.5421   60.1474 H       1  ZINC000013809319    0.1400
     55 H55        -7.7335   -1.8903   62.3679 H       1  ZINC000013809319    0.1400
@<TRIPOS>BOND
     1     1     2    1
     2     1    31    1
     3     1    32    1
     4     1    33    1
     5     2     3    1
     6     2    34    1
     7     2    35    1
     8     3     4    1
     9     4    30   ar
    10     4     5   ar
    11     5     6   ar
    12     5    36    1
    13     6     7   ar
    14     6    37    1
    15     7     8    1
    16     7    29   ar
    17     8    28    1
    18     8     9    2
    19     9    10    1
    20     9    38    1
    21    10    11    2
    22    10    12   am
    23    12    13    1
    24    12    27    1
    25    13    14    1
    26    13    39    1
    27    13    40    1
    28    14    15    2
    29    14    16   am
    30    16    17    1
    31    16    41    1
    32    17    18    1
    33    17    42    1
    34    17    43    1
    35    18    19    1
    36    18    44    1
    37    18    45    1
    38    19    24   ar
    39    19    20   ar
    40    20    21   ar
    41    20    46    1
    42    21    22   ar
    43    21    47    1
    44    22    23   ar
    45    22    48    1
    46    23    24   ar
    47    23    49    1
    48    24    25    1
    49    25    26    1
    50    26    50    1
    51    26    51    1
    52    26    52    1
    53    27    28    2
    54    27    53    1
    55    29    30   ar
    56    29    54    1
    57    30    55    1
@<TRIPOS>SUBSTRUCTURE
     1 ZINC000013809319        1 TEMP              0 ****  ****    0 ROOT


##########                                Name:    ZINC000033150761
##########                DOCK_Rotatable_Bonds:                   7
##########                         Heavy_Atoms:                  29
##########                    Molecular_Weight:             413.407
##########                DOCK_Rotatable_Bonds:                   7
##########                       Formal_Charge:          0.00999993
##########                     HBond_Acceptors:                  10
##########                        HBond_Donors:                   1
##########                         Heavy_Atoms:                  29
##########                          Grid_Score:          -37.398815
##########                     Grid_vdw_energy:          -37.033356
##########                      Grid_es_energy:           -0.365460
##########           Internal_energy_repulsive:            5.921711

@<TRIPOS>MOLECULE
ZINC000033150761
 42 45 1 0 0
SMALL
USER_CHARGES


@<TRIPOS>ATOM
      1 O1        -10.9347   -3.7091   56.6384 O.2     1  ZINC000033150761   -0.5000
      2 C2        -12.0333   -3.2052   56.5371 C.2     1  ZINC000033150761    0.5200
      3 C3        -13.1495   -3.9607   55.8630 C.3     1  ZINC000033150761   -0.1300
      4 C4        -13.5032   -3.2761   54.5412 C.3     1  ZINC000033150761   -0.0100
      5 C5        -12.2504   -3.0772   53.7275 C.2     1  ZINC000033150761    0.1800
      6 N6        -11.4788   -2.0189   53.7333 N.2     1  ZINC000033150761   -0.4400
      7 C7        -10.4856   -2.2889   52.8566 C.2     1  ZINC000033150761    0.2200
      8 C8         -9.3518   -1.3961   52.5069 C.ar    1  ZINC000033150761    0.1900
      9 C9         -9.2379   -0.1522   53.1214 C.ar    1  ZINC000033150761   -0.1300
     10 C10        -8.1750    0.6698   52.7852 C.ar    1  ZINC000033150761   -0.0700
     11 C11        -7.2614    0.2187   51.8443 C.ar    1  ZINC000033150761   -0.1500
     12 C12        -7.4363   -1.0294   51.2732 C.ar    1  ZINC000033150761    0.1100
     13 N13        -8.4533   -1.7929   51.6155 N.ar    1  ZINC000033150761   -0.4500
     14 N14       -10.7098   -3.4832   52.3748 N.2     1  ZINC000033150761   -0.3600
     15 O15       -11.7145   -3.9501   52.8687 O.3     1  ZINC000033150761    0.0900
     16 N16       -12.2573   -1.9719   57.0323 N.am    1  ZINC000033150761   -0.6200
     17 C17       -11.2280   -1.2754   57.6539 C.2     1  ZINC000033150761    0.2700
     18 N18       -11.1038   -1.1057   58.9333 N.2     1  ZINC000033150761   -0.5000
     19 C19       -10.0542   -0.4110   59.3492 C.2     1  ZINC000033150761    0.1200
     20 C20        -9.7972   -0.1467   60.7860 C.ar    1  ZINC000033150761    0.0000
     21 C21        -9.0907   -1.0725   61.5513 C.ar    1  ZINC000033150761   -0.0800
     22 C22        -8.8530   -0.8232   62.8880 C.ar    1  ZINC000033150761   -0.1200
     23 C23        -9.3150    0.3449   63.4700 C.ar    1  ZINC000033150761    0.0700
     24 F24        -9.0797    0.5844   64.7785 F       1  ZINC000033150761   -0.1300
     25 C25       -10.0187    1.2708   62.7126 C.ar    1  ZINC000033150761    0.0700
     26 F26       -10.4672    2.4095   63.2847 F       1  ZINC000033150761   -0.1300
     27 C27       -10.2567    1.0312   61.3731 C.ar    1  ZINC000033150761   -0.1000
     28 C28        -9.2382    0.0374   58.3786 C.2     1  ZINC000033150761   -0.2800
     29 S29        -9.8850   -0.4918   56.8272 S.3     1  ZINC000033150761    0.2200
     30 H30       -12.8295   -4.9843   55.6678 H       1  ZINC000033150761    0.1200
     31 H31       -14.0250   -3.9713   56.5122 H       1  ZINC000033150761    0.1200
     32 H32       -14.2026   -3.8999   53.9847 H       1  ZINC000033150761    0.1300
     33 H33       -13.9619   -2.3085   54.7445 H       1  ZINC000033150761    0.1200
     34 H34        -9.9682    0.1675   53.8500 H       1  ZINC000033150761    0.1400
     35 H35        -8.0605    1.6403   53.2449 H       1  ZINC000033150761    0.1500
     36 H36        -6.4218    0.8356   51.5599 H       1  ZINC000033150761    0.1400
     37 H37        -6.7270   -1.3841   50.5402 H       1  ZINC000033150761    0.1700
     38 H38       -13.1370   -1.5706   56.9548 H       1  ZINC000033150761    0.4300
     39 H39        -8.7300   -1.9844   61.0991 H       1  ZINC000033150761    0.1400
     40 H40        -8.3058   -1.5411   63.4810 H       1  ZINC000033150761    0.1500
     41 H41       -10.8043    1.7517   60.7835 H       1  ZINC000033150761    0.1600
     42 H42        -8.3393    0.6177   58.5252 H       1  ZINC000033150761    0.1800
@<TRIPOS>BOND
     1     1     2    2
     2     2     3    1
     3     2    16   am
     4     3     4    1
     5     3    30    1
     6     3    31    1
     7     4     5    1
     8     4    32    1
     9     4    33    1
    10     5    15    1
    11     5     6    2
    12     6     7    1
    13     7     8    1
    14     7    14    2
    15     8    13   ar
    16     8     9   ar
    17     9    10   ar
    18     9    34    1
    19    10    11   ar
    20    10    35    1
    21    11    12   ar
    22    11    36    1
    23    12    13   ar
    24    12    37    1
    25    14    15    1
    26    16    17    1
    27    16    38    1
    28    17    29    1
    29    17    18    2
    30    18    19    1
    31    19    20    1
    32    19    28    2
    33    20    27   ar
    34    20    21   ar
    35    21    22   ar
    36    21    39    1
    37    22    23   ar
    38    22    40    1
    39    23    24    1
    40    23    25   ar
    41    25    26    1
    42    25    27   ar
    43    27    41    1
    44    28    29    1
    45    28    42    1
@<TRIPOS>SUBSTRUCTURE
     1 ZINC000033150761        1 TEMP              0 ****  ****    0 ROOT


##########                                Name:    ZINC000434204837
##########                DOCK_Rotatable_Bonds:                   7
##########                         Heavy_Atoms:                  29
##########                    Molecular_Weight:             406.511
##########                DOCK_Rotatable_Bonds:                   7
##########                       Formal_Charge:          -0.0200002
##########                     HBond_Acceptors:                   8
##########                        HBond_Donors:                   0
##########                         Heavy_Atoms:                  29
##########                          Grid_Score:          -37.354771
##########                     Grid_vdw_energy:          -37.820461
##########                      Grid_es_energy:            0.465690
##########           Internal_energy_repulsive:           15.895472

@<TRIPOS>MOLECULE
ZINC000434204837
 51 54 1 0 0
SMALL
USER_CHARGES


@<TRIPOS>ATOM
      1 C1         -7.7822    2.9378   52.9362 C.3     1  ZINC000434204837   -0.1300
      2 C2         -7.4264    1.6335   52.2704 C.ar    1  ZINC000434204837   -0.0700
      3 C3         -6.2257    1.5058   51.5980 C.ar    1  ZINC000434204837   -0.1200
      4 C4         -5.8993    0.3092   50.9871 C.ar    1  ZINC000434204837   -0.1100
      5 C5         -6.7736   -0.7594   51.0492 C.ar    1  ZINC000434204837   -0.1300
      6 C6         -7.9743   -0.6320   51.7225 C.ar    1  ZINC000434204837   -0.0900
      7 C7         -8.2987    0.5629   52.3369 C.ar    1  ZINC000434204837   -0.1000
      8 C8         -9.6076    0.7018   53.0708 C.3     1  ZINC000434204837    0.0100
      9 C9        -10.4225   -0.5523   52.8865 C.2     1  ZINC000434204837    0.2000
     10 N10       -10.6964   -1.4476   53.8046 N.2     1  ZINC000434204837   -0.4600
     11 C11       -11.4434   -2.3811   53.1886 C.2     1  ZINC000434204837    0.1700
     12 C12       -12.0140   -3.6254   53.8187 C.3     1  ZINC000434204837   -0.0300
     13 S13       -13.7373   -3.3290   54.2863 S.3     1  ZINC000434204837    0.0900
     14 C14       -13.9142   -4.5195   55.5732 C.2     1  ZINC000434204837    0.2100
     15 N15       -14.5369   -5.6754   55.4893 N.2     1  ZINC000434204837   -0.3300
     16 N16       -14.4787   -6.3003   56.6097 N.2     1  ZINC000434204837   -0.0200
     17 N17       -13.8275   -5.6056   57.4785 N.2     1  ZINC000434204837   -0.0700
     18 N18       -13.4289   -4.4201   56.8365 N.pl3   1  ZINC000434204837   -0.3100
     19 C19       -12.6948   -3.3594   57.3858 C.ar    1  ZINC000434204837    0.1100
     20 C20       -13.3473   -2.2143   57.8222 C.ar    1  ZINC000434204837   -0.1100
     21 C21       -12.6215   -1.1711   58.3633 C.ar    1  ZINC000434204837   -0.0900
     22 C22       -11.2461   -1.2664   58.4702 C.ar    1  ZINC000434204837   -0.0600
     23 C23       -10.4571   -0.1264   59.0611 C.3     1  ZINC000434204837   -0.0600
     24 C24        -9.6061   -0.6433   60.2228 C.3     1  ZINC000434204837   -0.1500
     25 C25        -9.5456    0.4729   57.9883 C.3     1  ZINC000434204837   -0.1500
     26 C26       -10.5933   -2.4056   58.0364 C.ar    1  ZINC000434204837   -0.1000
     27 C27       -11.3144   -3.4542   57.4996 C.ar    1  ZINC000434204837   -0.0900
     28 N28       -11.5831   -2.0127   51.9503 N.2     1  ZINC000434204837   -0.3600
     29 O29       -11.0089   -0.9617   51.7575 O.3     1  ZINC000434204837    0.0900
     30 H30        -7.4126    2.9349   53.9616 H       1  ZINC000434204837    0.0800
     31 H31        -7.3259    3.7620   52.3879 H       1  ZINC000434204837    0.0700
     32 H32        -8.8653    3.0599   52.9407 H       1  ZINC000434204837    0.0700
     33 H33        -5.5424    2.3408   51.5496 H       1  ZINC000434204837    0.1300
     34 H34        -4.9613    0.2097   50.4612 H       1  ZINC000434204837    0.1200
     35 H35        -6.5190   -1.6940   50.5714 H       1  ZINC000434204837    0.1300
     36 H36        -8.6577   -1.4669   51.7707 H       1  ZINC000434204837    0.1300
     37 H37        -9.4143    0.8569   54.1323 H       1  ZINC000434204837    0.1200
     38 H38       -10.1582    1.5545   52.6735 H       1  ZINC000434204837    0.1200
     39 H39       -11.9675   -4.4482   53.1052 H       1  ZINC000434204837    0.1300
     40 H40       -11.4355   -3.8812   54.7064 H       1  ZINC000434204837    0.1400
     41 H41       -14.4214   -2.1391   57.7384 H       1  ZINC000434204837    0.1400
     42 H42       -13.1286   -0.2802   58.7030 H       1  ZINC000434204837    0.1400
     43 H43       -11.1421    0.6393   59.4251 H       1  ZINC000434204837    0.0800
     44 H44        -8.9211   -1.4091   59.8587 H       1  ZINC000434204837    0.0600
     45 H45        -9.0354    0.1812   60.6501 H       1  ZINC000434204837    0.0600
     46 H46       -10.2555   -1.0704   60.9871 H       1  ZINC000434204837    0.0600
     47 H47       -10.1519    0.8412   57.1607 H       1  ZINC000434204837    0.0600
     48 H48        -8.9749    1.2974   58.4157 H       1  ZINC000434204837    0.0600
     49 H49        -8.8606   -0.2928   57.6244 H       1  ZINC000434204837    0.0600
     50 H50        -9.5190   -2.4768   58.1208 H       1  ZINC000434204837    0.1400
     51 H51       -10.8040   -4.3437   57.1610 H       1  ZINC000434204837    0.1400
@<TRIPOS>BOND
     1     1     2    1
     2     1    30    1
     3     1    31    1
     4     1    32    1
     5     2     7   ar
     6     2     3   ar
     7     3     4   ar
     8     3    33    1
     9     4     5   ar
    10     4    34    1
    11     5     6   ar
    12     5    35    1
    13     6     7   ar
    14     6    36    1
    15     7     8    1
    16     8     9    1
    17     8    37    1
    18     8    38    1
    19     9    29    1
    20     9    10    2
    21    10    11    1
    22    11    12    1
    23    11    28    2
    24    12    13    1
    25    12    39    1
    26    12    40    1
    27    13    14    1
    28    14    18    1
    29    14    15    2
    30    15    16    1
    31    16    17    2
    32    17    18    1
    33    18    19    1
    34    19    27   ar
    35    19    20   ar
    36    20    21   ar
    37    20    41    1
    38    21    22   ar
    39    21    42    1
    40    22    23    1
    41    22    26   ar
    42    23    24    1
    43    23    25    1
    44    23    43    1
    45    24    44    1
    46    24    45    1
    47    24    46    1
    48    25    47    1
    49    25    48    1
    50    25    49    1
    51    26    27   ar
    52    26    50    1
    53    27    51    1
    54    28    29    1
@<TRIPOS>SUBSTRUCTURE
     1 ZINC000434204837        1 TEMP              0 ****  ****    0 ROOT


##########                                Name:    ZINC000504860563
##########                DOCK_Rotatable_Bonds:                   6
##########                         Heavy_Atoms:                  25
##########                    Molecular_Weight:             370.786
##########                DOCK_Rotatable_Bonds:                   6
##########                       Formal_Charge:                0.01
##########                     HBond_Acceptors:                   9
##########                        HBond_Donors:                   0
##########                         Heavy_Atoms:                  25
##########                          Grid_Score:          -37.273212
##########                     Grid_vdw_energy:          -36.367088
##########                      Grid_es_energy:           -0.906125
##########           Internal_energy_repulsive:           18.899052

@<TRIPOS>MOLECULE
ZINC000504860563
 42 44 1 0 0
SMALL
USER_CHARGES


@<TRIPOS>ATOM
      1 O1        -10.5433   -5.6638   58.2435 O.2     1  ZINC000504860563   -0.5100
      2 C2        -10.9842   -4.5423   58.0842 C.2     1  ZINC000504860563    0.5700
      3 C3        -12.2244   -4.3392   57.3056 C.ar    1  ZINC000504860563    0.0500
      4 N4        -13.4054   -4.4851   57.8960 N.ar    1  ZINC000504860563   -0.4100
      5 C5        -14.5310   -4.3132   57.2401 C.ar    1  ZINC000504860563    0.0600
      6 C6        -14.5312   -3.9703   55.8960 C.ar    1  ZINC000504860563   -0.1000
      7 C7        -13.3266   -3.8068   55.2356 C.ar    1  ZINC000504860563   -0.1700
      8 C8        -12.1466   -3.9890   55.9532 C.ar    1  ZINC000504860563    0.1400
      9 O9        -10.9417   -3.8389   55.3483 O.3     1  ZINC000504860563   -0.2600
     10 C10       -10.9494   -3.5734   53.9442 C.3     1  ZINC000504860563   -0.0100
     11 C11       -11.2595   -2.0941   53.7065 C.3     1  ZINC000504860563    0.2800
     12 F12       -10.2870   -1.3073   54.3331 F       1  ZINC000504860563   -0.1900
     13 F13       -11.2568   -1.8320   52.3323 F       1  ZINC000504860563   -0.1900
     14 N14       -10.3453   -3.4843   58.6220 N.am    1  ZINC000504860563   -0.6000
     15 C15       -10.8724   -2.1239   58.4482 C.3     1  ZINC000504860563    0.0800
     16 C16       -11.0197   -1.4724   59.8267 C.3     1  ZINC000504860563   -0.1500
     17 C17        -9.6797   -1.5379   60.5633 C.3     1  ZINC000504860563    0.1600
     18 N18        -9.8081   -0.8863   61.8690 N.pl3   1  ZINC000504860563   -0.3600
     19 C19        -8.8329   -0.7636   62.7951 C.2     1  ZINC000504860563    0.0700
     20 C20        -9.3522   -0.1014   63.8554 C.2     1  ZINC000504860563   -0.1900
     21 Cl21       -8.5077    0.3131   65.3144 Cl      1  ZINC000504860563   -0.0400
     22 C22       -10.6901    0.1906   63.5672 C.2     1  ZINC000504860563    0.0600
     23 N23       -10.9625   -0.2749   62.3750 N.2     1  ZINC000504860563   -0.2800
     24 C24        -9.2754   -3.0007   60.7610 C.3     1  ZINC000504860563   -0.1400
     25 C25        -9.1117   -3.6702   59.3982 C.3     1  ZINC000504860563    0.1200
     26 H26       -15.4712   -4.4413   57.7559 H       1  ZINC000504860563    0.1700
     27 H27       -15.4640   -3.8326   55.3693 H       1  ZINC000504860563    0.1500
     28 H28       -13.3016   -3.5400   54.1894 H       1  ZINC000504860563    0.1500
     29 H29        -9.9722   -3.8118   53.5240 H       1  ZINC000504860563    0.1000
     30 H30       -11.7112   -4.1863   53.4626 H       1  ZINC000504860563    0.1000
     31 H31       -12.2399   -1.8575   54.1198 H       1  ZINC000504860563    0.1300
     32 H32       -10.1823   -1.5396   57.8396 H       1  ZINC000504860563    0.0700
     33 H33       -11.8456   -2.1688   57.9594 H       1  ZINC000504860563    0.1600
     34 H34       -11.3183   -0.4310   59.7069 H       1  ZINC000504860563    0.0900
     35 H35       -11.7773   -2.0048   60.4018 H       1  ZINC000504860563    0.0700
     36 H36        -8.9170   -1.0268   59.9757 H       1  ZINC000504860563    0.1100
     37 H37        -7.8205   -1.1290   62.7060 H       1  ZINC000504860563    0.1800
     38 H38       -11.3780    0.7130   64.2155 H       1  ZINC000504860563    0.1900
     39 H39        -8.3327   -3.0470   61.3061 H       1  ZINC000504860563    0.0900
     40 H40       -10.0494   -3.5187   61.3272 H       1  ZINC000504860563    0.0800
     41 H41        -8.9211   -4.7346   59.5345 H       1  ZINC000504860563    0.1000
     42 H42        -8.2786   -3.2131   58.8642 H       1  ZINC000504860563    0.0800
@<TRIPOS>BOND
     1     1     2    2
     2     2     3    1
     3     2    14   am
     4     3     8   ar
     5     3     4   ar
     6     4     5   ar
     7     5     6   ar
     8     5    26    1
     9     6     7   ar
    10     6    27    1
    11     7     8   ar
    12     7    28    1
    13     8     9    1
    14     9    10    1
    15    10    11    1
    16    10    29    1
    17    10    30    1
    18    11    12    1
    19    11    13    1
    20    11    31    1
    21    14    25    1
    22    14    15    1
    23    15    16    1
    24    15    32    1
    25    15    33    1
    26    16    17    1
    27    16    34    1
    28    16    35    1
    29    17    18    1
    30    17    24    1
    31    17    36    1
    32    18    23    1
    33    18    19    1
    34    19    20    2
    35    19    37    1
    36    20    21    1
    37    20    22    1
    38    22    23    2
    39    22    38    1
    40    24    25    1
    41    24    39    1
    42    24    40    1
    43    25    41    1
    44    25    42    1
@<TRIPOS>SUBSTRUCTURE
     1 ZINC000504860563        1 TEMP              0 ****  ****    0 ROOT


##########                                Name:    ZINC000031496632
##########                DOCK_Rotatable_Bonds:                   8
##########                         Heavy_Atoms:                  30
##########                    Molecular_Weight:             423.539
##########                DOCK_Rotatable_Bonds:                   8
##########                       Formal_Charge:          -0.0100009
##########                     HBond_Acceptors:                   8
##########                        HBond_Donors:                   1
##########                         Heavy_Atoms:                  30
##########                          Grid_Score:          -37.261398
##########                     Grid_vdw_energy:          -37.011971
##########                      Grid_es_energy:           -0.249426
##########           Internal_energy_repulsive:            8.522511

@<TRIPOS>MOLECULE
ZINC000031496632
 55 58 1 0 0
SMALL
USER_CHARGES


@<TRIPOS>ATOM
      1 C1        -11.2388    1.5126   63.4891 C.3     1  ZINC000031496632   -0.1600
      2 C2         -9.7406    1.4063   63.1975 C.3     1  ZINC000031496632    0.1600
      3 C3         -8.9765    1.2320   64.5116 C.3     1  ZINC000031496632   -0.1600
      4 N4         -9.4924    0.2510   62.3314 N.pl3   1  ZINC000031496632   -0.3900
      5 N5         -8.9825   -0.9813   62.7514 N.2     1  ZINC000031496632   -0.2300
      6 C6         -8.8820   -1.7930   61.7379 C.2     1  ZINC000031496632    0.0800
      7 C7         -9.3483   -1.0817   60.5527 C.ar    1  ZINC000031496632   -0.2100
      8 C8         -9.4758   -1.4188   59.2003 C.ar    1  ZINC000031496632    0.0100
      9 C9         -9.9713   -0.4570   58.3338 C.ar    1  ZINC000031496632    0.0500
     10 N10       -10.1195   -0.7425   56.9702 N.am    1  ZINC000031496632   -0.6600
     11 C11       -11.3481   -0.9395   56.4525 C.2     1  ZINC000031496632    0.5500
     12 O12       -12.3284   -0.8694   57.1691 O.2     1  ZINC000031496632   -0.4900
     13 C13       -11.5039   -1.2397   55.0182 C.ar    1  ZINC000031496632   -0.1300
     14 C14       -11.4440   -0.2116   54.0741 C.ar    1  ZINC000031496632   -0.0600
     15 C15       -11.5906   -0.4989   52.7346 C.ar    1  ZINC000031496632   -0.1400
     16 C16       -11.7979   -1.8040   52.3165 C.ar    1  ZINC000031496632   -0.0600
     17 C17       -11.8602   -2.8308   53.2356 C.ar    1  ZINC000031496632   -0.1500
     18 C18       -11.7080   -2.5622   54.5909 C.ar    1  ZINC000031496632   -0.0600
     19 S19       -11.7863   -3.8713   55.7677 S.3     1  ZINC000031496632    0.0900
     20 C20       -13.4682   -4.5154   55.5503 C.3     1  ZINC000031496632   -0.2000
     21 C21       -14.4658   -3.4641   55.9632 C.2     1  ZINC000031496632    0.5500
     22 O22       -14.8417   -2.6362   55.1607 O.2     1  ZINC000031496632   -0.5200
     23 N23       -14.9402   -3.4439   57.2246 N.am    1  ZINC000031496632   -0.6200
     24 C24       -15.9183   -2.4841   57.7570 C.3     1  ZINC000031496632    0.1000
     25 C25       -16.1386   -2.8317   59.2444 C.3     1  ZINC000031496632   -0.1300
     26 C26       -14.8498   -3.6128   59.6133 C.3     1  ZINC000031496632   -0.1300
     27 C27       -14.5690   -4.3848   58.2973 C.3     1  ZINC000031496632    0.1000
     28 C28       -10.3212    0.7968   58.8324 C.ar    1  ZINC000031496632    0.1600
     29 N29       -10.1916    1.0890   60.1076 N.ar    1  ZINC000031496632   -0.4900
     30 C30        -9.7288    0.2052   60.9827 C.ar    1  ZINC000031496632    0.3000
     31 H31       -11.4235    2.3720   64.1335 H       1  ZINC000031496632    0.0800
     32 H32       -11.7832    1.6367   62.5529 H       1  ZINC000031496632    0.0600
     33 H33       -11.5772    0.6047   63.9884 H       1  ZINC000031496632    0.0700
     34 H34        -9.4023    2.3142   62.6982 H       1  ZINC000031496632    0.1100
     35 H35        -9.1612    2.0914   65.1560 H       1  ZINC000031496632    0.0800
     36 H36        -9.3148    0.3241   65.0110 H       1  ZINC000031496632    0.0700
     37 H37        -7.9092    1.1562   64.3039 H       1  ZINC000031496632    0.0600
     38 H38        -8.5185   -2.8095   61.7691 H       1  ZINC000031496632    0.2000
     39 H39        -9.1962   -2.3986   58.8425 H       1  ZINC000031496632    0.1500
     40 H40        -9.3377   -0.7984   56.3987 H       1  ZINC000031496632    0.4100
     41 H41       -11.2834    0.8074   54.3940 H       1  ZINC000031496632    0.1300
     42 H42       -11.5438    0.2973   52.0064 H       1  ZINC000031496632    0.1300
     43 H43       -11.9119   -2.0184   51.2641 H       1  ZINC000031496632    0.1300
     44 H44       -12.0227   -3.8449   52.9015 H       1  ZINC000031496632    0.1300
     45 H45       -13.6255   -4.7741   54.5032 H       1  ZINC000031496632    0.1100
     46 H46       -13.5997   -5.4038   56.1679 H       1  ZINC000031496632    0.1100
     47 H47       -15.5291   -1.4699   57.6671 H       1  ZINC000031496632    0.0700
     48 H48       -16.8584   -2.5723   57.2125 H       1  ZINC000031496632    0.0700
     49 H49       -16.2251   -1.9253   59.8436 H       1  ZINC000031496632    0.0900
     50 H50       -17.0197   -3.4617   59.3667 H       1  ZINC000031496632    0.0800
     51 H51       -14.0340   -2.9302   59.8514 H       1  ZINC000031496632    0.0800
     52 H52       -15.0333   -4.3024   60.4372 H       1  ZINC000031496632    0.0900
     53 H53       -15.1811   -5.2853   58.2478 H       1  ZINC000031496632    0.0700
     54 H54       -13.5116   -4.6392   58.2249 H       1  ZINC000031496632    0.0800
     55 H55       -10.7071    1.5449   58.1559 H       1  ZINC000031496632    0.1700
@<TRIPOS>BOND
     1     1     2    1
     2     1    31    1
     3     1    32    1
     4     1    33    1
     5     2     3    1
     6     2     4    1
     7     2    34    1
     8     3    35    1
     9     3    36    1
    10     3    37    1
    11     4    30    1
    12     4     5    1
    13     5     6    2
    14     6     7    1
    15     6    38    1
    16     7    30   ar
    17     7     8   ar
    18     8     9   ar
    19     8    39    1
    20     9    10    1
    21     9    28   ar
    22    10    11   am
    23    10    40    1
    24    11    12    2
    25    11    13    1
    26    13    18   ar
    27    13    14   ar
    28    14    15   ar
    29    14    41    1
    30    15    16   ar
    31    15    42    1
    32    16    17   ar
    33    16    43    1
    34    17    18   ar
    35    17    44    1
    36    18    19    1
    37    19    20    1
    38    20    21    1
    39    20    45    1
    40    20    46    1
    41    21    22    2
    42    21    23   am
    43    23    27    1
    44    23    24    1
    45    24    25    1
    46    24    47    1
    47    24    48    1
    48    25    26    1
    49    25    49    1
    50    25    50    1
    51    26    27    1
    52    26    51    1
    53    26    52    1
    54    27    53    1
    55    27    54    1
    56    28    29   ar
    57    28    55    1
    58    29    30   ar
@<TRIPOS>SUBSTRUCTURE
     1 ZINC000031496632        1 TEMP              0 ****  ****    0 ROOT


##########                                Name:    ZINC000538774026
##########                DOCK_Rotatable_Bonds:                  10
##########                         Heavy_Atoms:                  29
##########                    Molecular_Weight:             414.496
##########                DOCK_Rotatable_Bonds:                  10
##########                       Formal_Charge:            0.049999
##########                     HBond_Acceptors:                   9
##########                        HBond_Donors:                   2
##########                         Heavy_Atoms:                  29
##########                          Grid_Score:          -37.257542
##########                     Grid_vdw_energy:          -37.072155
##########                      Grid_es_energy:           -0.185386
##########           Internal_energy_repulsive:           28.867519

@<TRIPOS>MOLECULE
ZINC000538774026
 61 62 1 0 0
SMALL
USER_CHARGES


@<TRIPOS>ATOM
      1 C1         -3.5027    1.7767   49.5780 C.3     1  ZINC000538774026   -0.1500
      2 C2         -4.4671    1.3042   50.6679 C.3     1  ZINC000538774026   -0.1100
      3 C3         -4.3365    2.2116   51.8928 C.3     1  ZINC000538774026   -0.1400
      4 C4         -5.9018    1.3635   50.1399 C.3     1  ZINC000538774026    0.1400
      5 N5         -6.7582    0.4979   50.9546 N.pl3   1  ZINC000538774026   -0.3400
      6 N6         -6.9123   -0.8862   50.8047 N.2     1  ZINC000538774026   -0.2500
      7 C7         -7.7554   -1.3078   51.7121 C.2     1  ZINC000538774026    0.0500
      8 C8         -8.1702   -0.2064   52.4747 C.2     1  ZINC000538774026    0.0800
      9 N9         -9.0761   -0.2380   53.5527 N.am    1  ZINC000538774026   -0.6600
     10 C10       -10.1452   -1.0575   53.5107 C.2     1  ZINC000538774026    0.7100
     11 O11       -10.3268   -1.7709   52.5428 O.2     1  ZINC000538774026   -0.5700
     12 N12       -11.0129   -1.0865   54.5415 N.am    1  ZINC000538774026   -0.7300
     13 C13       -12.1760   -1.9761   54.4951 C.3     1  ZINC000538774026    0.1600
     14 C14       -11.7368   -3.4069   54.8129 C.3     1  ZINC000538774026   -0.1300
     15 C15       -11.1163   -3.4512   56.2108 C.3     1  ZINC000538774026   -0.1000
     16 C16       -12.1496   -2.9939   57.2422 C.3     1  ZINC000538774026   -0.0800
     17 C17       -11.5384   -3.0376   58.6191 C.2     1  ZINC000538774026    0.4700
     18 O18       -10.9430   -4.0234   58.9846 O.2     1  ZINC000538774026   -0.5000
     19 O19       -11.6554   -1.9815   59.4391 O.3     1  ZINC000538774026   -0.3500
     20 C20       -10.4249   -1.3450   59.8740 C.3     1  ZINC000538774026    0.1200
     21 C21        -9.4214   -1.3325   58.7191 C.3     1  ZINC000538774026   -0.1800
     22 C22       -10.7200    0.0919   60.3089 C.3     1  ZINC000538774026   -0.1400
     23 C23        -9.8367   -2.1238   61.0523 C.3     1  ZINC000538774026   -0.1800
     24 C24       -12.5888   -1.5632   56.9244 C.3     1  ZINC000538774026   -0.1100
     25 C25       -13.2094   -1.5188   55.5266 C.3     1  ZINC000538774026   -0.1300
     26 C26        -7.5389    0.8945   51.9932 C.2     1  ZINC000538774026   -0.0500
     27 C27        -7.6847    2.3023   52.5108 C.3     1  ZINC000538774026    0.3500
     28 F28        -8.8150    2.8951   51.9379 F       1  ZINC000538774026   -0.1900
     29 F29        -7.8271    2.2751   53.9023 F       1  ZINC000538774026   -0.1900
     30 H30        -2.4805    1.7345   49.9541 H       1  ZINC000538774026    0.0600
     31 H31        -3.5958    1.1302   48.7054 H       1  ZINC000538774026    0.0600
     32 H32        -3.7449    2.8019   49.2981 H       1  ZINC000538774026    0.0600
     33 H33        -4.2249    0.2790   50.9478 H       1  ZINC000538774026    0.0800
     34 H34        -4.5787    3.2369   51.6129 H       1  ZINC000538774026    0.0600
     35 H35        -5.0236    1.8751   52.6692 H       1  ZINC000538774026    0.0600
     36 H36        -3.3143    2.1695   52.2689 H       1  ZINC000538774026    0.0600
     37 H37        -6.2665    2.3893   50.1932 H       1  ZINC000538774026    0.1000
     38 H38        -5.9223    1.0239   49.1044 H       1  ZINC000538774026    0.1000
     39 H39        -8.0772   -2.3294   51.8500 H       1  ZINC000538774026    0.2100
     40 H40        -8.9306    0.3302   54.3253 H       1  ZINC000538774026    0.4100
     41 H41       -10.8675   -0.5184   55.3141 H       1  ZINC000538774026    0.4000
     42 H42       -12.6181   -1.9445   53.4994 H       1  ZINC000538774026    0.1000
     43 H43       -12.6021   -4.0687   54.7784 H       1  ZINC000538774026    0.0800
     44 H44       -11.0006   -3.7326   54.0782 H       1  ZINC000538774026    0.0800
     45 H45       -10.8034   -4.4705   56.4372 H       1  ZINC000538774026    0.0700
     46 H46       -10.2509   -2.7893   56.2453 H       1  ZINC000538774026    0.0700
     47 H47       -13.0149   -3.6558   57.2077 H       1  ZINC000538774026    0.1100
     48 H48        -9.8406   -0.7777   57.8796 H       1  ZINC000538774026    0.0600
     49 H49        -8.4977   -0.8547   59.0455 H       1  ZINC000538774026    0.0700
     50 H50        -9.2112   -2.3561   58.4093 H       1  ZINC000538774026    0.0800
     51 H51       -11.4349    0.0830   61.1316 H       1  ZINC000538774026    0.0700
     52 H52        -9.7963    0.5697   60.6352 H       1  ZINC000538774026    0.0800
     53 H53       -11.1391    0.6468   59.4694 H       1  ZINC000538774026    0.0700
     54 H54        -9.6265   -3.1475   60.7425 H       1  ZINC000538774026    0.0800
     55 H55        -8.9130   -1.6461   61.3787 H       1  ZINC000538774026    0.0700
     56 H56       -10.5516   -2.1327   61.8751 H       1  ZINC000538774026    0.0600
     57 H57       -13.3250   -1.2374   57.6593 H       1  ZINC000538774026    0.0800
     58 H58       -11.7235   -0.9013   56.9589 H       1  ZINC000538774026    0.0600
     59 H59       -13.5223   -0.4995   55.3003 H       1  ZINC000538774026    0.0800
     60 H60       -14.0747   -2.1807   55.4921 H       1  ZINC000538774026    0.0900
     61 H61        -6.7986    2.8798   52.2475 H       1  ZINC000538774026    0.1300
@<TRIPOS>BOND
     1     1     2    1
     2     1    30    1
     3     1    31    1
     4     1    32    1
     5     2     3    1
     6     2     4    1
     7     2    33    1
     8     3    34    1
     9     3    35    1
    10     3    36    1
    11     4     5    1
    12     4    37    1
    13     4    38    1
    14     5    26    1
    15     5     6    1
    16     6     7    2
    17     7     8    1
    18     7    39    1
    19     8     9    1
    20     8    26    2
    21     9    10   am
    22     9    40    1
    23    10    11    2
    24    10    12   am
    25    12    13    1
    26    12    41    1
    27    13    25    1
    28    13    14    1
    29    13    42    1
    30    14    15    1
    31    14    43    1
    32    14    44    1
    33    15    16    1
    34    15    45    1
    35    15    46    1
    36    16    17    1
    37    16    24    1
    38    16    47    1
    39    17    18    2
    40    17    19    1
    41    19    20    1
    42    20    21    1
    43    20    22    1
    44    20    23    1
    45    21    48    1
    46    21    49    1
    47    21    50    1
    48    22    51    1
    49    22    52    1
    50    22    53    1
    51    23    54    1
    52    23    55    1
    53    23    56    1
    54    24    25    1
    55    24    57    1
    56    24    58    1
    57    25    59    1
    58    25    60    1
    59    26    27    1
    60    27    28    1
    61    27    29    1
    62    27    61    1
@<TRIPOS>SUBSTRUCTURE
     1 ZINC000538774026        1 TEMP              0 ****  ****    0 ROOT


##########                                Name:    ZINC000914736341
##########                DOCK_Rotatable_Bonds:                   7
##########                         Heavy_Atoms:                  27
##########                    Molecular_Weight:             384.905
##########                DOCK_Rotatable_Bonds:                   7
##########                       Formal_Charge:                0.02
##########                     HBond_Acceptors:                   5
##########                        HBond_Donors:                   1
##########                         Heavy_Atoms:                  27
##########                          Grid_Score:          -37.147087
##########                     Grid_vdw_energy:          -37.099403
##########                      Grid_es_energy:           -0.047684
##########           Internal_energy_repulsive:           28.778637

@<TRIPOS>MOLECULE
ZINC000914736341
 52 54 1 0 0
SMALL
USER_CHARGES


@<TRIPOS>ATOM
      1 C1         -9.6452    2.8130   53.0518 C.3     1  ZINC000914736341   -0.1400
      2 C2         -9.2942    1.3379   53.2566 C.3     1  ZINC000914736341   -0.0300
      3 C3         -8.9418    1.0967   54.7258 C.3     1  ZINC000914736341   -0.1400
      4 C4        -10.4937    0.4701   52.8707 C.3     1  ZINC000914736341    0.1300
      5 N5        -10.4659   -0.7735   53.6446 N.am    1  ZINC000914736341   -0.7200
      6 C6        -11.2352   -1.8159   53.2729 C.2     1  ZINC000914736341    0.5300
      7 O7        -11.9515   -1.7239   52.2986 O.2     1  ZINC000914736341   -0.5300
      8 C8        -11.2052   -3.0958   54.0679 C.3     1  ZINC000914736341   -0.1200
      9 H9        -10.2664   -3.6273   53.9125 H       1  ZINC000914736341    0.1200
     10 C10       -12.4141   -3.9937   53.7169 C.3     1  ZINC000914736341   -0.1400
     11 C11       -12.8014   -4.6265   55.0352 C.2     1  ZINC000914736341    0.5200
     12 O12       -13.5144   -5.6003   55.1554 O.2     1  ZINC000914736341   -0.5200
     13 N13       -12.2401   -3.9528   56.0540 N.am    1  ZINC000914736341   -0.6100
     14 C14       -12.4026   -4.3047   57.4668 C.3     1  ZINC000914736341    0.1600
     15 C15       -11.3164   -3.6452   58.2770 C.ar    1  ZINC000914736341   -0.1000
     16 C16       -10.1163   -4.2982   58.4849 C.ar    1  ZINC000914736341   -0.0800
     17 C17        -9.1197   -3.6933   59.2281 C.ar    1  ZINC000914736341   -0.1100
     18 C18        -9.3231   -2.4357   59.7641 C.ar    1  ZINC000914736341   -0.1000
     19 C19       -10.5232   -1.7816   59.5568 C.ar    1  ZINC000914736341   -0.1100
     20 C20       -11.5184   -2.3836   58.8081 C.ar    1  ZINC000914736341   -0.0300
     21 Cl21      -13.0257   -1.5628   58.5474 Cl      1  ZINC000914736341   -0.0600
     22 C22       -11.4422   -2.8197   55.5692 C.3     1  ZINC000914736341    0.1000
     23 C23        -8.1142    0.9775   52.3913 C.ar    1  ZINC000914736341   -0.0700
     24 C24        -8.1285   -0.1926   51.6555 C.ar    1  ZINC000914736341   -0.1200
     25 C25        -7.0461   -0.5232   50.8617 C.ar    1  ZINC000914736341   -0.1200
     26 C26        -5.9496    0.3166   50.8035 C.ar    1  ZINC000914736341   -0.1200
     27 C27        -5.9358    1.4872   51.5386 C.ar    1  ZINC000914736341   -0.1200
     28 C28        -7.0199    1.8198   52.3290 C.ar    1  ZINC000914736341   -0.1100
     29 H29        -8.7907    3.4314   53.3268 H       1  ZINC000914736341    0.0600
     30 H30        -9.8962    2.9848   52.0052 H       1  ZINC000914736341    0.0600
     31 H31       -10.4987    3.0737   53.6777 H       1  ZINC000914736341    0.0600
     32 H32        -9.7953    1.3574   55.3517 H       1  ZINC000914736341    0.0600
     33 H33        -8.6919    0.0458   54.8717 H       1  ZINC000914736341    0.0600
     34 H34        -8.0873    1.7151   55.0008 H       1  ZINC000914736341    0.0600
     35 H35       -11.4163    1.0100   53.0836 H       1  ZINC000914736341    0.0700
     36 H36       -10.4462    0.2371   51.8069 H       1  ZINC000914736341    0.0700
     37 H37        -9.8938   -0.8467   54.4245 H       1  ZINC000914736341    0.4000
     38 H38       -13.2353   -3.3925   53.3265 H       1  ZINC000914736341    0.1100
     39 H39       -12.1245   -4.7590   52.9968 H       1  ZINC000914736341    0.1100
     40 H40       -13.3763   -3.9615   57.8169 H       1  ZINC000914736341    0.1000
     41 H41       -12.3358   -5.3865   57.5819 H       1  ZINC000914736341    0.1000
     42 H42        -9.9571   -5.2811   58.0669 H       1  ZINC000914736341    0.1400
     43 H43        -8.1819   -4.2039   59.3903 H       1  ZINC000914736341    0.1300
     44 H44        -8.5446   -1.9640   60.3453 H       1  ZINC000914736341    0.1300
     45 H45       -10.6821   -0.7988   59.9757 H       1  ZINC000914736341    0.1400
     46 H46       -10.4913   -2.7735   56.1000 H       1  ZINC000914736341    0.1000
     47 H47       -11.9929   -1.8880   55.6985 H       1  ZINC000914736341    0.0900
     48 H48        -8.9852   -0.8486   51.7010 H       1  ZINC000914736341    0.1300
     49 H49        -7.0570   -1.4377   50.2874 H       1  ZINC000914736341    0.1200
     50 H50        -5.1037    0.0580   50.1838 H       1  ZINC000914736341    0.1200
     51 H51        -5.0790    2.1431   51.4933 H       1  ZINC000914736341    0.1200
     52 H52        -7.0091    2.7345   52.9033 H       1  ZINC000914736341    0.1200
@<TRIPOS>BOND
     1     1     2    1
     2     1    29    1
     3     1    30    1
     4     1    31    1
     5     2     3    1
     6     2     4    1
     7     2    23    1
     8     3    32    1
     9     3    33    1
    10     3    34    1
    11     4     5    1
    12     4    35    1
    13     4    36    1
    14     5     6   am
    15     5    37    1
    16     6     7    2
    17     6     8    1
    18     8     9    1
    19     8    22    1
    20     8    10    1
    21    10    11    1
    22    10    38    1
    23    10    39    1
    24    11    12    2
    25    11    13   am
    26    13    14    1
    27    13    22    1
    28    14    15    1
    29    14    40    1
    30    14    41    1
    31    15    20   ar
    32    15    16   ar
    33    16    17   ar
    34    16    42    1
    35    17    18   ar
    36    17    43    1
    37    18    19   ar
    38    18    44    1
    39    19    20   ar
    40    19    45    1
    41    20    21    1
    42    22    46    1
    43    22    47    1
    44    23    28   ar
    45    23    24   ar
    46    24    25   ar
    47    24    48    1
    48    25    26   ar
    49    25    49    1
    50    26    27   ar
    51    26    50    1
    52    27    28   ar
    53    27    51    1
    54    28    52    1
@<TRIPOS>SUBSTRUCTURE
     1 ZINC000914736341        1 TEMP              0 ****  ****    0 ROOT


##########                                Name:    ZINC000962855438
##########                DOCK_Rotatable_Bonds:                   7
##########                         Heavy_Atoms:                  27
##########                    Molecular_Weight:             370.448
##########                DOCK_Rotatable_Bonds:                   7
##########                       Formal_Charge:           0.0300005
##########                     HBond_Acceptors:                   6
##########                        HBond_Donors:                   2
##########                         Heavy_Atoms:                  27
##########                          Grid_Score:          -37.080124
##########                     Grid_vdw_energy:          -35.446262
##########                      Grid_es_energy:           -1.633861
##########           Internal_energy_repulsive:           10.815536

@<TRIPOS>MOLECULE
ZINC000962855438
 53 56 1 0 0
SMALL
USER_CHARGES


@<TRIPOS>ATOM
      1 C1        -10.9132    3.1063   60.0583 C.3     1  ZINC000962855438   -0.1100
      2 C2        -10.6092    1.7525   60.6466 C.2     1  ZINC000962855438   -0.1700
      3 C3        -10.2409    0.6336   59.7656 C.2     1  ZINC000962855438    0.5600
      4 O4         -9.9990    0.8384   58.5914 O.2     1  ZINC000962855438   -0.5400
      5 N5        -10.1716   -0.6185   60.2595 N.am    1  ZINC000962855438   -0.7100
      6 C6         -9.8064   -1.7331   59.3816 C.3     1  ZINC000962855438    0.1500
      7 H7         -9.1827   -1.3895   58.5565 H       1  ZINC000962855438    0.1200
      8 C8        -11.0681   -2.4633   58.8576 C.3     1  ZINC000962855438    0.1000
      9 N9        -10.6101   -3.8287   58.5422 N.am    1  ZINC000962855438   -0.6100
     10 C10       -11.1916   -4.6688   57.6633 C.2     1  ZINC000962855438    0.5800
     11 O11       -10.7251   -5.7768   57.4815 O.2     1  ZINC000962855438   -0.5200
     12 C12       -12.3942   -4.2439   56.9216 C.ar    1  ZINC000962855438   -0.1500
     13 C13       -13.6415   -4.2593   57.5457 C.ar    1  ZINC000962855438   -0.0600
     14 C14       -14.7669   -3.8638   56.8552 C.ar    1  ZINC000962855438   -0.1500
     15 C15       -14.6609   -3.4529   55.5358 C.ar    1  ZINC000962855438   -0.0500
     16 C16       -13.4349   -3.4365   54.9091 C.ar    1  ZINC000962855438   -0.1800
     17 C17       -12.2838   -3.8171   55.5857 C.ar    1  ZINC000962855438    0.1600
     18 O18       -11.1857   -3.7060   54.7934 O.3     1  ZINC000962855438   -0.2800
     19 C19       -11.5966   -3.6685   53.4161 C.3     1  ZINC000962855438    0.0700
     20 H20       -11.6299   -4.6735   52.9954 H       1  ZINC000962855438    0.0900
     21 C21       -10.6669   -2.7707   52.5972 C.3     1  ZINC000962855438   -0.1500
     22 C22       -13.0168   -3.0567   53.5014 C.3     1  ZINC000962855438   -0.1100
     23 C23        -9.4136   -4.1217   59.3447 C.3     1  ZINC000962855438    0.0700
     24 C24        -9.1012   -2.8614   60.1796 C.3     1  ZINC000962855438    0.0900
     25 H25        -8.0262   -2.6873   60.2276 H       1  ZINC000962855438    0.0900
     26 O26        -9.6522   -2.9759   61.4932 O.3     1  ZINC000962855438   -0.5600
     27 C27       -10.6738    1.5695   61.9623 C.2     1  ZINC000962855438   -0.0600
     28 C28       -11.0049    2.4192   63.1709 C.3     1  ZINC000962855438   -0.1000
     29 C29       -10.1226    1.4679   63.9944 C.3     1  ZINC000962855438   -0.1400
     30 C30       -10.4554    0.4170   62.9195 C.3     1  ZINC000962855438   -0.1100
     31 H31       -11.9773    3.1732   59.8318 H       1  ZINC000962855438    0.0700
     32 H32       -10.6447    3.8824   60.7750 H       1  ZINC000962855438    0.0700
     33 H33       -10.3375    3.2422   59.1428 H       1  ZINC000962855438    0.0700
     34 H34       -10.3634   -0.7816   61.1963 H       1  ZINC000962855438    0.4100
     35 H35       -11.8386   -2.4901   59.6281 H       1  ZINC000962855438    0.0800
     36 H36       -11.4449   -1.9729   57.9600 H       1  ZINC000962855438    0.0900
     37 H37       -13.7258   -4.5823   58.5728 H       1  ZINC000962855438    0.1400
     38 H38       -15.7310   -3.8745   57.3419 H       1  ZINC000962855438    0.1400
     39 H39       -15.5443   -3.1444   54.9964 H       1  ZINC000962855438    0.1300
     40 H40        -9.6538   -3.1715   52.6290 H       1  ZINC000962855438    0.0700
     41 H41       -11.0120   -2.7367   51.5639 H       1  ZINC000962855438    0.0800
     42 H42       -10.6727   -1.7641   53.0154 H       1  ZINC000962855438    0.0700
     43 H43       -13.6812   -3.5102   52.7660 H       1  ZINC000962855438    0.1000
     44 H44       -12.9827   -1.9742   53.3784 H       1  ZINC000962855438    0.1000
     45 H45        -9.6084   -4.9661   60.0059 H       1  ZINC000962855438    0.0800
     46 H46        -8.5734   -4.3484   58.6883 H       1  ZINC000962855438    0.0800
     47 H47        -9.6598   -2.1465   61.9901 H       1  ZINC000962855438    0.3900
     48 H48       -10.6127    3.4344   63.1105 H       1  ZINC000962855438    0.0900
     49 H49       -12.0581    2.3880   63.4501 H       1  ZINC000962855438    0.1000
     50 H50        -9.0719    1.7563   64.0236 H       1  ZINC000962855438    0.0900
     51 H51       -10.5285    1.2318   64.9781 H       1  ZINC000962855438    0.0800
     52 H52       -11.3588   -0.1542   63.1335 H       1  ZINC000962855438    0.1000
     53 H53        -9.6087   -0.2148   62.6509 H       1  ZINC000962855438    0.0800
@<TRIPOS>BOND
     1     1     2    1
     2     1    31    1
     3     1    32    1
     4     1    33    1
     5     2     3    1
     6     2    27    2
     7     3     4    2
     8     3     5   am
     9     5     6    1
    10     5    34    1
    11     6     7    1
    12     6    24    1
    13     6     8    1
    14     8     9    1
    15     8    35    1
    16     8    36    1
    17     9    10   am
    18     9    23    1
    19    10    11    2
    20    10    12    1
    21    12    17   ar
    22    12    13   ar
    23    13    14   ar
    24    13    37    1
    25    14    15   ar
    26    14    38    1
    27    15    16   ar
    28    15    39    1
    29    16    22    1
    30    16    17   ar
    31    17    18    1
    32    18    19    1
    33    19    20    1
    34    19    21    1
    35    19    22    1
    36    21    40    1
    37    21    41    1
    38    21    42    1
    39    22    43    1
    40    22    44    1
    41    23    24    1
    42    23    45    1
    43    23    46    1
    44    24    25    1
    45    24    26    1
    46    26    47    1
    47    27    30    1
    48    27    28    1
    49    28    29    1
    50    28    48    1
    51    28    49    1
    52    29    30    1
    53    29    50    1
    54    29    51    1
    55    30    52    1
    56    30    53    1
@<TRIPOS>SUBSTRUCTURE
     1 ZINC000962855438        1 TEMP              0 ****  ****    0 ROOT


##########                                Name:    ZINC001083519372
##########                DOCK_Rotatable_Bonds:                   7
##########                         Heavy_Atoms:                  27
##########                    Molecular_Weight:             370.411
##########                DOCK_Rotatable_Bonds:                   7
##########                       Formal_Charge:           0.0399996
##########                     HBond_Acceptors:                   9
##########                        HBond_Donors:                   2
##########                         Heavy_Atoms:                  27
##########                          Grid_Score:          -37.062698
##########                     Grid_vdw_energy:          -35.617950
##########                      Grid_es_energy:           -1.444749
##########           Internal_energy_repulsive:           10.820959

@<TRIPOS>MOLECULE
ZINC001083519372
 49 52 1 0 0
SMALL
USER_CHARGES


@<TRIPOS>ATOM
      1 C1        -13.0156    0.4471   51.8257 C.3     1  ZINC001083519372   -0.1500
      2 C2        -13.4987   -0.9837   52.0710 C.3     1  ZINC001083519372   -0.0100
      3 C3        -14.2828   -1.4733   50.8517 C.3     1  ZINC001083519372   -0.1500
      4 C4        -12.3109   -1.8829   52.2986 C.2     1  ZINC001083519372   -0.0100
      5 C5        -12.2817   -2.9887   53.0607 C.2     1  ZINC001083519372   -0.0100
      6 C6        -13.4348   -3.5579   53.8464 C.3     1  ZINC001083519372    0.1300
      7 N7        -12.9178   -4.3677   54.9576 N.3     1  ZINC001083519372   -0.5000
      8 C8        -12.1490   -3.5304   55.9137 C.3     1  ZINC001083519372    0.0300
      9 C9        -12.1506   -4.3797   57.2095 C.3     1  ZINC001083519372    0.1500
     10 H10       -11.3839   -5.1533   57.1648 H       1  ZINC001083519372    0.1200
     11 N11       -11.9583   -3.5294   58.3869 N.am    1  ZINC001083519372   -0.6900
     12 C12       -10.7132   -3.2034   58.7866 C.2     1  ZINC001083519372    0.5600
     13 O13        -9.7494   -3.6137   58.1692 O.2     1  ZINC001083519372   -0.5100
     14 C14       -10.5196   -2.3487   59.9731 C.2     1  ZINC001083519372    0.1400
     15 C15        -9.3056   -2.2958   60.6035 C.2     1  ZINC001083519372   -0.1500
     16 C16        -9.1533   -1.4742   61.7284 C.2     1  ZINC001083519372    0.1800
     17 N17       -10.1611   -0.7632   62.1739 N.2     1  ZINC001083519372   -0.4400
     18 C18       -11.3545   -0.8011   61.5722 C.2     1  ZINC001083519372    0.2500
     19 C19       -12.5611   -0.1615   61.8352 C.2     1  ZINC001083519372   -0.2500
     20 C20       -13.4739   -0.5768   60.8800 C.2     1  ZINC001083519372    0.1000
     21 N21       -12.8856   -1.4243   60.0642 N.2     1  ZINC001083519372   -0.3100
     22 N22       -11.5545   -1.5855   60.4634 N.pl3   1  ZINC001083519372   -0.3100
     23 C23       -13.5629   -5.0087   57.2089 C.3     1  ZINC001083519372    0.0900
     24 H24       -13.5177   -6.0403   57.5582 H       1  ZINC001083519372    0.0800
     25 O25       -14.4462   -4.2452   58.0327 O.3     1  ZINC001083519372   -0.5600
     26 C26       -14.0235   -4.9614   55.7403 C.3     1  ZINC001083519372    0.0100
     27 N27       -11.0381   -3.4962   52.9960 N.2     1  ZINC001083519372   -0.4800
     28 C28       -10.3165   -2.7362   52.2224 C.2     1  ZINC001083519372    0.1700
     29 O29       -11.0801   -1.7321   51.7712 O.3     1  ZINC001083519372   -0.2000
     30 H30       -12.4569    0.7959   52.6942 H       1  ZINC001083519372    0.0600
     31 H31       -12.3708    0.4673   50.9470 H       1  ZINC001083519372    0.0600
     32 H32       -13.8746    1.0975   51.6611 H       1  ZINC001083519372    0.0700
     33 H33       -14.1433   -1.0039   52.9496 H       1  ZINC001083519372    0.1000
     34 H34       -13.6381   -1.4531   49.9731 H       1  ZINC001083519372    0.0600
     35 H35       -14.6270   -2.4926   51.0265 H       1  ZINC001083519372    0.0600
     36 H36       -15.1419   -0.8229   50.6871 H       1  ZINC001083519372    0.0700
     37 H37       -14.0422   -2.7438   54.2419 H       1  ZINC001083519372    0.0900
     38 H38       -14.0452   -4.1830   53.1945 H       1  ZINC001083519372    0.0600
     39 H39       -11.1308   -3.3753   55.5566 H       1  ZINC001083519372    0.1000
     40 H40       -12.6496   -2.5764   56.0784 H       1  ZINC001083519372    0.0600
     41 H41       -12.7272   -3.2010   58.8788 H       1  ZINC001083519372    0.4300
     42 H42        -8.4747   -2.8810   60.2381 H       1  ZINC001083519372    0.1800
     43 H43        -8.1991   -1.4266   62.2324 H       1  ZINC001083519372    0.1900
     44 H44       -12.7519    0.5336   62.6396 H       1  ZINC001083519372    0.1700
     45 H45       -14.5032   -0.2563   60.8155 H       1  ZINC001083519372    0.2000
     46 H46       -15.3761   -4.4982   57.9523 H       1  ZINC001083519372    0.3900
     47 H47       -14.9160   -4.3420   55.6508 H       1  ZINC001083519372    0.0700
     48 H48       -14.2311   -5.9701   55.3835 H       1  ZINC001083519372    0.0900
     49 H49        -9.2755   -2.8922   51.9811 H       1  ZINC001083519372    0.2500
@<TRIPOS>BOND
     1     1     2    1
     2     1    30    1
     3     1    31    1
     4     1    32    1
     5     2     3    1
     6     2     4    1
     7     2    33    1
     8     3    34    1
     9     3    35    1
    10     3    36    1
    11     4    29    1
    12     4     5    2
    13     5     6    1
    14     5    27    1
    15     6     7    1
    16     6    37    1
    17     6    38    1
    18     7    26    1
    19     7     8    1
    20     8     9    1
    21     8    39    1
    22     8    40    1
    23     9    10    1
    24     9    11    1
    25     9    23    1
    26    11    12   am
    27    11    41    1
    28    12    13    2
    29    12    14    1
    30    14    22    1
    31    14    15    2
    32    15    16    1
    33    15    42    1
    34    16    17    2
    35    16    43    1
    36    17    18    1
    37    18    22    1
    38    18    19    2
    39    19    20    1
    40    19    44    1
    41    20    21    2
    42    20    45    1
    43    21    22    1
    44    23    24    1
    45    23    25    1
    46    23    26    1
    47    25    46    1
    48    26    47    1
    49    26    48    1
    50    27    28    2
    51    28    29    1
    52    28    49    1
@<TRIPOS>SUBSTRUCTURE
     1 ZINC001083519372        1 TEMP              0 ****  ****    0 ROOT


##########                                Name:    ZINC001090961577
##########                DOCK_Rotatable_Bonds:                   9
##########                         Heavy_Atoms:                  24
##########                    Molecular_Weight:             352.458
##########                DOCK_Rotatable_Bonds:                   9
##########                       Formal_Charge:                0.02
##########                     HBond_Acceptors:                   8
##########                        HBond_Donors:                   1
##########                         Heavy_Atoms:                  24
##########                          Grid_Score:          -37.057781
##########                     Grid_vdw_energy:          -37.371151
##########                      Grid_es_energy:            0.313369
##########           Internal_energy_repulsive:            9.426898

@<TRIPOS>MOLECULE
ZINC001090961577
 48 49 1 0 0
SMALL
USER_CHARGES


@<TRIPOS>ATOM
      1 C1        -10.2309   -1.3389   60.9107 C.3     1  ZINC001090961577   -0.1400
      2 C2         -9.0564   -1.5834   59.9609 C.3     1  ZINC001090961577   -0.0900
      3 S3         -8.8990   -3.3617   59.6394 S.3     1  ZINC001090961577   -0.2700
      4 C4        -10.4965   -3.7841   58.8910 C.3     1  ZINC001090961577   -0.0700
      5 C5        -10.6992   -2.9564   57.6204 C.3     1  ZINC001090961577   -0.1200
      6 C6        -11.9526   -3.4120   56.9186 C.2     1  ZINC001090961577    0.5400
      7 O7        -12.8747   -3.8692   57.5602 O.2     1  ZINC001090961577   -0.5300
      8 N8        -12.0488   -3.3115   55.5781 N.am    1  ZINC001090961577   -0.6200
      9 C9        -13.2082   -3.7161   54.7695 C.3     1  ZINC001090961577    0.1100
     10 C10       -12.8767   -3.3902   53.2979 C.3     1  ZINC001090961577   -0.1100
     11 H11       -12.4899   -4.2711   52.7856 H       1  ZINC001090961577    0.0900
     12 C12       -14.1084   -2.8427   52.5740 C.3     1  ZINC001090961577   -0.1400
     13 C13       -11.7787   -2.3010   53.4221 C.3     1  ZINC001090961577    0.1500
     14 H14       -12.2204   -1.3176   53.5830 H       1  ZINC001090961577    0.1200
     15 N15       -10.9083   -2.2961   52.2437 N.pl3   1  ZINC001090961577   -0.6700
     16 C16        -9.8553   -1.4088   52.1679 C.ar    1  ZINC001090961577    0.5900
     17 N17       -10.0326   -0.1619   52.5852 N.ar    1  ZINC001090961577   -0.5700
     18 C18        -9.0505    0.7175   52.5296 C.ar    1  ZINC001090961577    0.2700
     19 C19        -7.8076    0.3168   52.0204 C.ar    1  ZINC001090961577   -0.3000
     20 C20        -6.6818    1.2653   51.9398 C.2     1  ZINC001090961577    0.5300
     21 O21        -6.5773    2.1553   52.7603 O.2     1  ZINC001090961577   -0.5100
     22 O22        -5.7688    1.1452   50.9562 O.3     1  ZINC001090961577   -0.3600
     23 C23        -4.5209    1.8686   51.1231 C.3     1  ZINC001090961577    0.0400
     24 C24        -7.6629   -1.0093   51.5904 C.ar    1  ZINC001090961577    0.2600
     25 N25        -8.6931   -1.8284   51.6846 N.ar    1  ZINC001090961577   -0.5700
     26 C26       -11.0116   -2.7716   54.6802 C.3     1  ZINC001090961577    0.0900
     27 H27       -10.3254   -0.2703   61.1039 H       1  ZINC001090961577    0.0700
     28 H28       -11.1495   -1.7085   60.4552 H       1  ZINC001090961577    0.0700
     29 H29       -10.0542   -1.8636   61.8496 H       1  ZINC001090961577    0.0700
     30 H30        -9.2331   -1.0587   59.0220 H       1  ZINC001090961577    0.0800
     31 H31        -8.1377   -1.2138   60.4165 H       1  ZINC001090961577    0.0800
     32 H32       -10.5110   -4.8447   58.6400 H       1  ZINC001090961577    0.0900
     33 H33       -11.2975   -3.5670   59.5977 H       1  ZINC001090961577    0.0900
     34 H34       -10.7930   -1.9029   57.8840 H       1  ZINC001090961577    0.1000
     35 H35        -9.8433   -3.0905   56.9589 H       1  ZINC001090961577    0.1000
     36 H36       -13.3832   -4.7860   54.8819 H       1  ZINC001090961577    0.0800
     37 H37       -14.0912   -3.1590   55.0827 H       1  ZINC001090961577    0.0800
     38 H38       -14.4611   -1.9464   53.0841 H       1  ZINC001090961577    0.0600
     39 H39       -13.8453   -2.5956   51.5455 H       1  ZINC001090961577    0.0600
     40 H40       -14.8960   -3.5961   52.5766 H       1  ZINC001090961577    0.0700
     41 H41       -11.0726   -2.9171   51.5168 H       1  ZINC001090961577    0.4200
     42 H42        -9.2022    1.7309   52.8708 H       1  ZINC001090961577    0.1800
     43 H43        -3.8772    1.6859   50.2626 H       1  ZINC001090961577    0.1100
     44 H44        -4.7275    2.9359   51.2022 H       1  ZINC001090961577    0.0700
     45 H45        -4.0215    1.5270   52.0296 H       1  ZINC001090961577    0.0700
     46 H46        -6.7212   -1.3566   51.1918 H       1  ZINC001090961577    0.1800
     47 H47       -10.4995   -1.9312   55.1488 H       1  ZINC001090961577    0.0900
     48 H48       -10.2986   -3.5538   54.4194 H       1  ZINC001090961577    0.0800
@<TRIPOS>BOND
     1     1     2    1
     2     1    27    1
     3     1    28    1
     4     1    29    1
     5     2     3    1
     6     2    30    1
     7     2    31    1
     8     3     4    1
     9     4     5    1
    10     4    32    1
    11     4    33    1
    12     5     6    1
    13     5    34    1
    14     5    35    1
    15     6     7    2
    16     6     8   am
    17     8    26    1
    18     8     9    1
    19     9    10    1
    20     9    36    1
    21     9    37    1
    22    10    11    1
    23    10    12    1
    24    10    13    1
    25    12    38    1
    26    12    39    1
    27    12    40    1
    28    13    14    1
    29    13    15    1
    30    13    26    1
    31    15    16    1
    32    15    41    1
    33    16    25   ar
    34    16    17   ar
    35    17    18   ar
    36    18    19   ar
    37    18    42    1
    38    19    20    1
    39    19    24   ar
    40    20    21    2
    41    20    22    1
    42    22    23    1
    43    23    43    1
    44    23    44    1
    45    23    45    1
    46    24    25   ar
    47    24    46    1
    48    26    47    1
    49    26    48    1
@<TRIPOS>SUBSTRUCTURE
     1 ZINC001090961577        1 TEMP              0 ****  ****    0 ROOT


##########                                Name:    ZINC000555499135
##########                DOCK_Rotatable_Bonds:                   8
##########                         Heavy_Atoms:                  26
##########                    Molecular_Weight:             377.554
##########                DOCK_Rotatable_Bonds:                   8
##########                       Formal_Charge:           0.0399999
##########                     HBond_Acceptors:                   7
##########                        HBond_Donors:                   0
##########                         Heavy_Atoms:                  26
##########                          Grid_Score:          -37.035797
##########                     Grid_vdw_energy:          -35.294621
##########                      Grid_es_energy:           -1.741176
##########           Internal_energy_repulsive:           12.860385

@<TRIPOS>MOLECULE
ZINC000555499135
 57 59 1 0 0
SMALL
USER_CHARGES


@<TRIPOS>ATOM
      1 C1         -8.0951    0.6345   64.6209 C.3     1  ZINC000555499135   -0.1500
      2 C2         -9.3768    1.2721   64.0809 C.3     1  ZINC000555499135   -0.0500
      3 C3        -10.0632    0.3079   63.1482 C.2     1  ZINC000555499135   -0.2100
      4 C4        -11.3761    0.2475   62.9066 C.2     1  ZINC000555499135    0.0300
      5 N5        -11.7314   -0.6867   62.0477 N.2     1  ZINC000555499135   -0.4500
      6 C6        -10.7911   -1.4177   61.5513 C.2     1  ZINC000555499135    0.0400
      7 C7        -10.9981   -2.5320   60.5581 C.3     1  ZINC000555499135    0.1500
      8 N8         -9.8697   -2.5661   59.6182 N.3     1  ZINC000555499135   -0.4500
      9 C9         -8.8419   -3.5163   60.0639 C.3     1  ZINC000555499135    0.0100
     10 C10       -10.3004   -2.8659   58.3356 C.2     1  ZINC000555499135    0.3500
     11 N11       -10.6899   -4.0401   57.8982 N.2     1  ZINC000555499135   -0.3100
     12 N12       -11.0223   -3.9563   56.6594 N.2     1  ZINC000555499135   -0.2900
     13 C13       -10.8659   -2.7338   56.2365 C.2     1  ZINC000555499135    0.2100
     14 C14       -11.1467   -2.2271   54.8454 C.3     1  ZINC000555499135   -0.0300
     15 C15       -11.2175   -3.4092   53.8766 C.3     1  ZINC000555499135   -0.0900
     16 C16       -12.6273   -4.0031   53.8988 C.3     1  ZINC000555499135   -0.1500
     17 C17       -10.8883   -2.9294   52.4616 C.3     1  ZINC000555499135   -0.1500
     18 N18       -10.4053   -1.9946   57.2907 N.pl3   1  ZINC000555499135   -0.4600
     19 C19       -10.0831   -0.5655   57.2951 C.3     1  ZINC000555499135    0.1100
     20 C20       -11.3725    0.2485   57.1713 C.3     1  ZINC000555499135    0.0700
     21 H21       -11.5480    0.4946   56.1240 H       1  ZINC000555499135    0.0700
     22 C22       -11.2415    1.5393   57.9839 C.3     1  ZINC000555499135   -0.1500
     23 C23       -12.5572    2.3196   57.9041 C.3     1  ZINC000555499135   -0.1200
     24 C24       -13.6975    1.4291   58.4073 C.3     1  ZINC000555499135   -0.1600
     25 C25       -13.7337    0.1425   57.5782 C.3     1  ZINC000555499135    0.0600
     26 O26       -12.4701   -0.5183   57.6709 O.3     1  ZINC000555499135   -0.3700
     27 S27        -9.2756   -0.9341   62.1778 S.3     1  ZINC000555499135    0.1200
     28 H28        -8.3435   -0.2790   65.1611 H       1  ZINC000555499135    0.0600
     29 H29        -7.4301    0.3963   63.7907 H       1  ZINC000555499135    0.0600
     30 H30        -7.5986    1.3319   65.2955 H       1  ZINC000555499135    0.0700
     31 H31       -10.0417    1.5103   64.9111 H       1  ZINC000555499135    0.0900
     32 H32        -9.1283    2.1857   63.5407 H       1  ZINC000555499135    0.0800
     33 H33       -12.0878    0.9100   63.3767 H       1  ZINC000555499135    0.1800
     34 H34       -11.0596   -3.4832   61.0867 H       1  ZINC000555499135    0.0800
     35 H35       -11.9238   -2.3614   60.0083 H       1  ZINC000555499135    0.1200
     36 H36        -9.2382   -4.5305   60.0132 H       1  ZINC000555499135    0.0500
     37 H37        -7.9675   -3.4353   59.4181 H       1  ZINC000555499135    0.0800
     38 H38        -8.5572   -3.2883   61.0911 H       1  ZINC000555499135    0.0900
     39 H39       -12.0973   -1.6938   54.8380 H       1  ZINC000555499135    0.1000
     40 H40       -10.3488   -1.5516   54.5368 H       1  ZINC000555499135    0.1000
     41 H41       -10.4979   -4.1701   54.1789 H       1  ZINC000555499135    0.0800
     42 H42       -12.8770   -4.3084   54.9149 H       1  ZINC000555499135    0.0500
     43 H43       -13.3424   -3.2542   53.5583 H       1  ZINC000555499135    0.0600
     44 H44       -12.6669   -4.8698   53.2389 H       1  ZINC000555499135    0.0600
     45 H45        -9.8839   -2.5063   52.4459 H       1  ZINC000555499135    0.0600
     46 H46       -10.9387   -3.7716   51.7714 H       1  ZINC000555499135    0.0600
     47 H47       -11.6079   -2.1684   52.1594 H       1  ZINC000555499135    0.0600
     48 H48        -9.5798   -0.3095   58.2275 H       1  ZINC000555499135    0.1100
     49 H49        -9.4277   -0.3382   56.4542 H       1  ZINC000555499135    0.1200
     50 H50       -11.0257    1.2946   59.0240 H       1  ZINC000555499135    0.0800
     51 H51       -10.4329    2.1459   57.5762 H       1  ZINC000555499135    0.0800
     52 H52       -12.4901    3.2122   58.5260 H       1  ZINC000555499135    0.0700
     53 H53       -12.7483    2.6074   56.8702 H       1  ZINC000555499135    0.0600
     54 H54       -13.5312    1.1821   59.4558 H       1  ZINC000555499135    0.0700
     55 H55       -14.6454    1.9568   58.3021 H       1  ZINC000555499135    0.0800
     56 H56       -14.5159   -0.5137   57.9596 H       1  ZINC000555499135    0.1000
     57 H57       -13.9401    0.3872   56.5363 H       1  ZINC000555499135    0.0500
@<TRIPOS>BOND
     1     1     2    1
     2     1    28    1
     3     1    29    1
     4     1    30    1
     5     2     3    1
     6     2    31    1
     7     2    32    1
     8     3    27    1
     9     3     4    2
    10     4     5    1
    11     4    33    1
    12     5     6    2
    13     6     7    1
    14     6    27    1
    15     7     8    1
    16     7    34    1
    17     7    35    1
    18     8     9    1
    19     8    10    1
    20     9    36    1
    21     9    37    1
    22     9    38    1
    23    10    18    1
    24    10    11    2
    25    11    12    1
    26    12    13    2
    27    13    14    1
    28    13    18    1
    29    14    15    1
    30    14    39    1
    31    14    40    1
    32    15    16    1
    33    15    17    1
    34    15    41    1
    35    16    42    1
    36    16    43    1
    37    16    44    1
    38    17    45    1
    39    17    46    1
    40    17    47    1
    41    18    19    1
    42    19    20    1
    43    19    48    1
    44    19    49    1
    45    20    21    1
    46    20    26    1
    47    20    22    1
    48    22    23    1
    49    22    50    1
    50    22    51    1
    51    23    24    1
    52    23    52    1
    53    23    53    1
    54    24    25    1
    55    24    54    1
    56    24    55    1
    57    25    26    1
    58    25    56    1
    59    25    57    1
@<TRIPOS>SUBSTRUCTURE
     1 ZINC000555499135        1 TEMP              0 ****  ****    0 ROOT


##########                                Name:    ZINC000182378855
##########                DOCK_Rotatable_Bonds:                   8
##########                         Heavy_Atoms:                  27
##########                    Molecular_Weight:              394.83
##########                DOCK_Rotatable_Bonds:                   8
##########                       Formal_Charge:          -0.0200001
##########                     HBond_Acceptors:                   8
##########                        HBond_Donors:                   1
##########                         Heavy_Atoms:                  27
##########                          Grid_Score:          -37.028061
##########                     Grid_vdw_energy:          -37.530571
##########                      Grid_es_energy:            0.502510
##########           Internal_energy_repulsive:           10.363311

@<TRIPOS>MOLECULE
ZINC000182378855
 47 49 1 0 0
SMALL
USER_CHARGES


@<TRIPOS>ATOM
      1 C1         -3.1618    1.9599   49.2804 C.3     1  ZINC000182378855    0.0300
      2 O2         -4.2385    2.0336   50.2170 O.3     1  ZINC000182378855   -0.3900
      3 C3         -5.1296    0.9176   50.1672 C.3     1  ZINC000182378855    0.0600
      4 C4         -6.2147    1.0833   51.2330 C.3     1  ZINC000182378855    0.0700
      5 O5         -7.0604   -0.0687   51.2350 O.3     1  ZINC000182378855   -0.2900
      6 C6         -8.0054   -0.1375   52.2063 C.ar    1  ZINC000182378855    0.3300
      7 C7         -8.9182   -1.1837   52.2027 C.ar    1  ZINC000182378855   -0.1300
      8 C8         -9.8846   -1.2407   53.2088 C.ar    1  ZINC000182378855   -0.0600
      9 C9        -10.8792   -2.3382   53.2467 C.2     1  ZINC000182378855    0.5600
     10 O10       -11.0427   -3.0441   52.2713 O.2     1  ZINC000182378855   -0.5200
     11 N11       -11.6027   -2.5537   54.3632 N.am    1  ZINC000182378855   -0.7100
     12 C12       -12.5849   -3.6400   54.4014 C.3     1  ZINC000182378855    0.1200
     13 H13       -12.1670   -4.5469   53.9646 H       1  ZINC000182378855    0.1100
     14 C14       -13.8769   -3.2279   53.6607 C.3     1  ZINC000182378855   -0.1700
     15 C15       -14.9695   -3.2864   54.7512 C.3     1  ZINC000182378855    0.0400
     16 O16       -14.2574   -3.1195   55.9965 O.3     1  ZINC000182378855   -0.3600
     17 C17       -13.0499   -3.8985   55.8517 C.3     1  ZINC000182378855    0.1100
     18 H18       -13.2615   -4.9576   55.9991 H       1  ZINC000182378855    0.1000
     19 C19       -12.0031   -3.4305   56.8295 C.ar    1  ZINC000182378855   -0.0500
     20 C20       -11.1510   -4.3450   57.4194 C.ar    1  ZINC000182378855   -0.1100
     21 C21       -10.1863   -3.9167   58.3125 C.ar    1  ZINC000182378855   -0.0800
     22 C22       -10.0803   -2.5739   58.6250 C.ar    1  ZINC000182378855   -0.0700
     23 Cl23       -8.8734   -2.0367   59.7512 Cl      1  ZINC000182378855   -0.0400
     24 C24       -10.9382   -1.6572   58.0381 C.ar    1  ZINC000182378855    0.1200
     25 F25       -10.8359   -0.3448   58.3419 F       1  ZINC000182378855   -0.1200
     26 C26       -11.8995   -2.0873   57.1401 C.ar    1  ZINC000182378855   -0.1300
     27 C27        -9.8883   -0.2338   54.1804 C.ar    1  ZINC000182378855   -0.1900
     28 C28        -8.9447    0.7710   54.1103 C.ar    1  ZINC000182378855    0.1400
     29 N29        -8.0431    0.7895   53.1481 N.ar    1  ZINC000182378855   -0.5200
     30 H30        -3.5634    1.9139   48.2681 H       1  ZINC000182378855    0.0400
     31 H31        -2.5314    2.8433   49.3814 H       1  ZINC000182378855    0.0900
     32 H32        -2.5694    1.0664   49.4773 H       1  ZINC000182378855    0.0400
     33 H33        -5.5930    0.8663   49.1819 H       1  ZINC000182378855    0.0600
     34 H34        -4.5730   -0.0006   50.3552 H       1  ZINC000182378855    0.0700
     35 H35        -5.7485    1.1934   52.2121 H       1  ZINC000182378855    0.0800
     36 H36        -6.8090    1.9698   51.0118 H       1  ZINC000182378855    0.0800
     37 H37        -8.8814   -1.9412   51.4338 H       1  ZINC000182378855    0.1600
     38 H38       -11.4731   -1.9894   55.1415 H       1  ZINC000182378855    0.4000
     39 H39       -13.7847   -2.2160   53.2663 H       1  ZINC000182378855    0.0900
     40 H40       -14.0990   -3.9326   52.8594 H       1  ZINC000182378855    0.0900
     41 H41       -15.6870   -2.4776   54.6131 H       1  ZINC000182378855    0.1000
     42 H42       -15.4769   -4.2508   54.7286 H       1  ZINC000182378855    0.0700
     43 H43       -11.2363   -5.3946   57.1795 H       1  ZINC000182378855    0.1500
     44 H44        -9.5182   -4.6317   58.7694 H       1  ZINC000182378855    0.1500
     45 H45       -12.5683   -1.3738   56.6818 H       1  ZINC000182378855    0.1500
     46 H46       -10.6197   -0.2431   54.9750 H       1  ZINC000182378855    0.1400
     47 H47        -8.9419    1.5512   54.8571 H       1  ZINC000182378855    0.1700
@<TRIPOS>BOND
     1     1     2    1
     2     1    30    1
     3     1    31    1
     4     1    32    1
     5     2     3    1
     6     3     4    1
     7     3    33    1
     8     3    34    1
     9     4     5    1
    10     4    35    1
    11     4    36    1
    12     5     6    1
    13     6    29   ar
    14     6     7   ar
    15     7     8   ar
    16     7    37    1
    17     8     9    1
    18     8    27   ar
    19     9    10    2
    20     9    11   am
    21    11    12    1
    22    11    38    1
    23    12    13    1
    24    12    17    1
    25    12    14    1
    26    14    15    1
    27    14    39    1
    28    14    40    1
    29    15    16    1
    30    15    41    1
    31    15    42    1
    32    16    17    1
    33    17    18    1
    34    17    19    1
    35    19    26   ar
    36    19    20   ar
    37    20    21   ar
    38    20    43    1
    39    21    22   ar
    40    21    44    1
    41    22    23    1
    42    22    24   ar
    43    24    25    1
    44    24    26   ar
    45    26    45    1
    46    27    28   ar
    47    27    46    1
    48    28    29   ar
    49    28    47    1
@<TRIPOS>SUBSTRUCTURE
     1 ZINC000182378855        1 TEMP              0 ****  ****    0 ROOT


##########                                Name:    ZINC001400108193
##########                DOCK_Rotatable_Bonds:                   9
##########                         Heavy_Atoms:                  25
##########                    Molecular_Weight:              344.41
##########                DOCK_Rotatable_Bonds:                   9
##########                       Formal_Charge:           0.0200001
##########                     HBond_Acceptors:                   6
##########                        HBond_Donors:                   2
##########                         Heavy_Atoms:                  25
##########                          Grid_Score:          -37.020985
##########                     Grid_vdw_energy:          -36.075195
##########                      Grid_es_energy:           -0.945788
##########           Internal_energy_repulsive:            7.500889

@<TRIPOS>MOLECULE
ZINC001400108193
 49 50 1 0 0
SMALL
USER_CHARGES


@<TRIPOS>ATOM
      1 C1         -8.9440    0.2402   52.8469 C.3     1  ZINC001400108193   -0.0800
      2 C2         -9.7719   -1.0152   52.9454 C.2     1  ZINC001400108193   -0.0100
      3 C3        -10.6695   -1.2817   53.9064 C.2     1  ZINC001400108193   -0.1600
      4 C4        -11.2201   -2.6074   53.5887 C.2     1  ZINC001400108193   -0.2300
      5 C5        -12.2448   -3.3507   54.3433 C.2     1  ZINC001400108193    0.5900
      6 O6        -12.5945   -4.4539   53.9695 O.2     1  ZINC001400108193   -0.5300
      7 N7        -12.7944   -2.8078   55.4477 N.am    1  ZINC001400108193   -0.7300
      8 C8        -13.8143   -3.5460   56.1969 C.3     1  ZINC001400108193    0.1100
      9 C9        -13.7999   -3.0944   57.6587 C.3     1  ZINC001400108193    0.1300
     10 H10       -14.0030   -2.0248   57.7105 H       1  ZINC001400108193    0.1000
     11 C11       -14.8738   -3.8559   58.4383 C.3     1  ZINC001400108193   -0.1600
     12 N12       -12.4848   -3.3706   58.2422 N.am    1  ZINC001400108193   -0.7300
     13 C13       -11.9650   -2.5313   59.1597 C.2     1  ZINC001400108193    0.5200
     14 O14       -12.5866   -1.5483   59.5035 O.2     1  ZINC001400108193   -0.5100
     15 C15       -10.6114   -2.8144   59.7586 C.3     1  ZINC001400108193    0.0700
     16 H16       -10.7299   -3.1095   60.8013 H       1  ZINC001400108193    0.1000
     17 C17        -9.9367   -3.9468   58.9817 C.3     1  ZINC001400108193   -0.1800
     18 O18        -9.8026   -1.6386   59.6853 O.3     1  ZINC001400108193   -0.2800
     19 C19        -9.5865   -0.9651   60.8457 C.ar    1  ZINC001400108193    0.1200
     20 C20        -8.9680   -1.6001   61.9128 C.ar    1  ZINC001400108193   -0.2100
     21 C21        -8.7490   -0.9131   63.0911 C.ar    1  ZINC001400108193   -0.0800
     22 C22        -9.1504    0.4048   63.2092 C.ar    1  ZINC001400108193   -0.1200
     23 C23        -8.9158    1.1500   64.4980 C.3     1  ZINC001400108193   -0.1100
     24 C24        -9.7623    1.0415   62.1453 C.ar    1  ZINC001400108193   -0.0800
     25 C25        -9.9836    0.3589   60.9648 C.ar    1  ZINC001400108193   -0.1400
     26 C26       -10.5799   -3.0083   52.4527 C.2     1  ZINC001400108193    0.0200
     27 O27        -9.7291   -2.0450   52.0858 O.3     1  ZINC001400108193   -0.1700
     28 H28        -8.0082    0.1016   53.3883 H       1  ZINC001400108193    0.0900
     29 H29        -8.7296    0.4529   51.7995 H       1  ZINC001400108193    0.0800
     30 H30        -9.4952    1.0741   53.2815 H       1  ZINC001400108193    0.0900
     31 H31       -10.9338   -0.6511   54.7424 H       1  ZINC001400108193    0.1600
     32 H32       -12.5147   -1.9284   55.7465 H       1  ZINC001400108193    0.4000
     33 H33       -13.6020   -4.6138   56.1444 H       1  ZINC001400108193    0.0800
     34 H34       -14.7957   -3.3490   55.7654 H       1  ZINC001400108193    0.0900
     35 H35       -14.8636   -3.5341   59.4796 H       1  ZINC001400108193    0.0700
     36 H36       -15.8523   -3.6503   58.0041 H       1  ZINC001400108193    0.0700
     37 H37       -14.6707   -4.9255   58.3864 H       1  ZINC001400108193    0.0600
     38 H38       -11.9882   -4.1574   57.9681 H       1  ZINC001400108193    0.4000
     39 H39       -10.5535   -4.8436   59.0376 H       1  ZINC001400108193    0.0800
     40 H40        -9.8181   -3.6517   57.9391 H       1  ZINC001400108193    0.0800
     41 H41        -8.9576   -4.1515   59.4149 H       1  ZINC001400108193    0.0800
     42 H42        -8.6584   -2.6308   61.8226 H       1  ZINC001400108193    0.1300
     43 H43        -8.2679   -1.4070   63.9223 H       1  ZINC001400108193    0.1300
     44 H44        -7.9428    1.6399   64.4624 H       1  ZINC001400108193    0.0700
     45 H45        -9.6956    1.8999   64.6310 H       1  ZINC001400108193    0.0700
     46 H46        -8.9396    0.4491   65.3324 H       1  ZINC001400108193    0.0700
     47 H47       -10.0713    2.0721   62.2386 H       1  ZINC001400108193    0.1300
     48 H48       -10.4649    0.8556   60.1354 H       1  ZINC001400108193    0.1300
     49 H49       -10.7360   -3.9438   51.9362 H       1  ZINC001400108193    0.2100
@<TRIPOS>BOND
     1     1     2    1
     2     1    28    1
     3     1    29    1
     4     1    30    1
     5     2    27    1
     6     2     3    2
     7     3     4    1
     8     3    31    1
     9     4     5    1
    10     4    26    2
    11     5     6    2
    12     5     7   am
    13     7     8    1
    14     7    32    1
    15     8     9    1
    16     8    33    1
    17     8    34    1
    18     9    10    1
    19     9    11    1
    20     9    12    1
    21    11    35    1
    22    11    36    1
    23    11    37    1
    24    12    13   am
    25    12    38    1
    26    13    14    2
    27    13    15    1
    28    15    16    1
    29    15    17    1
    30    15    18    1
    31    17    39    1
    32    17    40    1
    33    17    41    1
    34    18    19    1
    35    19    25   ar
    36    19    20   ar
    37    20    21   ar
    38    20    42    1
    39    21    22   ar
    40    21    43    1
    41    22    23    1
    42    22    24   ar
    43    23    44    1
    44    23    45    1
    45    23    46    1
    46    24    25   ar
    47    24    47    1
    48    25    48    1
    49    26    27    1
    50    26    49    1
@<TRIPOS>SUBSTRUCTURE
     1 ZINC001400108193        1 TEMP              0 ****  ****    0 ROOT


##########                                Name:    ZINC000541000201
##########                DOCK_Rotatable_Bonds:                  10
##########                         Heavy_Atoms:                  30
##########                    Molecular_Weight:             420.413
##########                DOCK_Rotatable_Bonds:                  10
##########                       Formal_Charge:               -0.03
##########                     HBond_Acceptors:                   9
##########                        HBond_Donors:                   1
##########                         Heavy_Atoms:                  30
##########                          Grid_Score:          -37.015144
##########                     Grid_vdw_energy:          -35.787624
##########                      Grid_es_energy:           -1.227520
##########           Internal_energy_repulsive:           19.407085

@<TRIPOS>MOLECULE
ZINC000541000201
 52 54 1 0 0
SMALL
USER_CHARGES


@<TRIPOS>ATOM
      1 C1        -15.4045   -3.4686   58.0623 C.3     1  ZINC000541000201    0.0400
      2 O2        -14.6187   -4.6169   58.4772 O.3     1  ZINC000541000201   -0.3500
      3 C3        -13.7351   -5.1029   57.5912 C.2     1  ZINC000541000201    0.4500
      4 O4        -13.9297   -6.1755   57.0701 O.2     1  ZINC000541000201   -0.4900
      5 C5        -12.5004   -4.3107   57.2466 C.3     1  ZINC000541000201    0.2100
      6 H6        -11.6839   -4.9939   57.0125 H       1  ZINC000541000201    0.1400
      7 N7        -12.1237   -3.4725   58.3876 N.am    1  ZINC000541000201   -0.7100
      8 C8        -10.8701   -3.5277   58.8796 C.2     1  ZINC000541000201    0.5800
      9 O9        -10.0515   -4.2720   58.3756 O.2     1  ZINC000541000201   -0.5300
     10 C10       -10.4911   -2.6845   60.0304 C.ar    1  ZINC000541000201   -0.2300
     11 C11        -9.2617   -2.8747   60.6778 C.ar    1  ZINC000541000201    0.0200
     12 C12        -8.9524   -2.0615   61.7490 C.ar    1  ZINC000541000201   -0.2000
     13 C13        -9.8620   -1.0877   62.1487 C.ar    1  ZINC000541000201    0.3500
     14 O14        -9.5636   -0.2864   63.1997 O.3     1  ZINC000541000201   -0.2900
     15 C15       -10.4923    0.7560   63.5051 C.3     1  ZINC000541000201    0.0800
     16 C16       -10.0271    1.5484   64.7519 C.3     1  ZINC000541000201   -0.1400
     17 C17       -10.7363    2.9138   64.5733 C.3     1  ZINC000541000201   -0.1200
     18 C18       -10.6703    3.1787   63.0550 C.3     1  ZINC000541000201   -0.1200
     19 C19       -10.5152    1.8066   62.3758 C.3     1  ZINC000541000201   -0.1200
     20 N20       -11.0152   -0.9324   61.5163 N.ar    1  ZINC000541000201   -0.5400
     21 C21       -11.3484   -1.6822   60.4868 C.ar    1  ZINC000541000201    0.1800
     22 C22       -12.7817   -3.4362   56.0520 C.ar    1  ZINC000541000201   -0.1300
     23 C23       -13.2673   -3.9971   54.8852 C.ar    1  ZINC000541000201   -0.0700
     24 C24       -13.5259   -3.1975   53.7887 C.ar    1  ZINC000541000201   -0.1300
     25 C25       -13.2987   -1.8307   53.8592 C.ar    1  ZINC000541000201    0.1200
     26 O26       -13.5529   -1.0421   52.7821 O.3     1  ZINC000541000201   -0.3200
     27 C27       -12.4680   -0.8019   51.8835 C.3     1  ZINC000541000201    0.4100
     28 F28       -11.4947   -0.0274   52.5241 F       1  ZINC000541000201   -0.2000
     29 F29       -11.9085   -2.0226   51.4909 F       1  ZINC000541000201   -0.2000
     30 C30       -12.8120   -1.2705   55.0313 C.ar    1  ZINC000541000201   -0.1900
     31 C31       -12.5594   -2.0736   56.1265 C.ar    1  ZINC000541000201   -0.0500
     32 H32       -16.0771   -3.1777   58.8693 H       1  ZINC000541000201    0.1000
     33 H33       -14.7385   -2.6382   57.8273 H       1  ZINC000541000201    0.0600
     34 H34       -15.9879   -3.7276   57.1787 H       1  ZINC000541000201    0.0600
     35 H35       -12.7765   -2.8778   58.7890 H       1  ZINC000541000201    0.4100
     36 H36        -8.5742   -3.6389   60.3465 H       1  ZINC000541000201    0.1600
     37 H37        -8.0146   -2.1800   62.2715 H       1  ZINC000541000201    0.1500
     38 H38       -11.4889    0.3436   63.6627 H       1  ZINC000541000201    0.1000
     39 H39       -10.3583    1.0580   65.6672 H       1  ZINC000541000201    0.0700
     40 H40        -8.9441    1.6723   64.7489 H       1  ZINC000541000201    0.0800
     41 H41       -11.7728    2.8516   64.9050 H       1  ZINC000541000201    0.0700
     42 H42       -10.2059    3.6936   65.1199 H       1  ZINC000541000201    0.0700
     43 H43       -11.5892    3.6596   62.7195 H       1  ZINC000541000201    0.0700
     44 H44        -9.8121    3.8093   62.8229 H       1  ZINC000541000201    0.0700
     45 H45        -9.5818    1.7714   61.8141 H       1  ZINC000541000201    0.0800
     46 H46       -11.3588    1.6217   61.7108 H       1  ZINC000541000201    0.0700
     47 H47       -12.2976   -1.5257   59.9961 H       1  ZINC000541000201    0.1600
     48 H48       -13.4440   -5.0610   54.8308 H       1  ZINC000541000201    0.1300
     49 H49       -13.9045   -3.6362   52.8773 H       1  ZINC000541000201    0.1400
     50 H50       -12.8345   -0.2708   51.0050 H       1  ZINC000541000201    0.1900
     51 H51       -12.6339   -0.2068   55.0885 H       1  ZINC000541000201    0.1400
     52 H52       -12.1808   -1.6378   57.0393 H       1  ZINC000541000201    0.1400
@<TRIPOS>BOND
     1     1     2    1
     2     1    32    1
     3     1    33    1
     4     1    34    1
     5     2     3    1
     6     3     4    2
     7     3     5    1
     8     5     6    1
     9     5     7    1
    10     5    22    1
    11     7     8   am
    12     7    35    1
    13     8     9    2
    14     8    10    1
    15    10    21   ar
    16    10    11   ar
    17    11    12   ar
    18    11    36    1
    19    12    13   ar
    20    12    37    1
    21    13    14    1
    22    13    20   ar
    23    14    15    1
    24    15    19    1
    25    15    16    1
    26    15    38    1
    27    16    17    1
    28    16    39    1
    29    16    40    1
    30    17    18    1
    31    17    41    1
    32    17    42    1
    33    18    19    1
    34    18    43    1
    35    18    44    1
    36    19    45    1
    37    19    46    1
    38    20    21   ar
    39    21    47    1
    40    22    31   ar
    41    22    23   ar
    42    23    24   ar
    43    23    48    1
    44    24    25   ar
    45    24    49    1
    46    25    26    1
    47    25    30   ar
    48    26    27    1
    49    27    28    1
    50    27    29    1
    51    27    50    1
    52    30    31   ar
    53    30    51    1
    54    31    52    1
@<TRIPOS>SUBSTRUCTURE
     1 ZINC000541000201        1 TEMP              0 ****  ****    0 ROOT


##########                                Name:    ZINC000740843182
##########                DOCK_Rotatable_Bonds:                  10
##########                         Heavy_Atoms:                  24
##########                    Molecular_Weight:              419.34
##########                DOCK_Rotatable_Bonds:                  10
##########                       Formal_Charge:          0.00999957
##########                     HBond_Acceptors:                   7
##########                        HBond_Donors:                   3
##########                         Heavy_Atoms:                  24
##########                          Grid_Score:          -36.994331
##########                     Grid_vdw_energy:          -36.032272
##########                      Grid_es_energy:           -0.962060
##########           Internal_energy_repulsive:            9.485901

@<TRIPOS>MOLECULE
ZINC000740843182
 47 48 1 0 0
SMALL
USER_CHARGES


@<TRIPOS>ATOM
      1 C1        -12.0769    2.1821   61.1373 C.3     1  ZINC000740843182   -0.1500
      2 C2        -11.1393    1.0207   61.4737 C.3     1  ZINC000740843182   -0.1000
      3 H3        -11.7234    0.1770   61.8412 H       1  ZINC000740843182    0.0900
      4 C4        -10.3743    0.6024   60.2164 C.3     1  ZINC000740843182    0.1200
      5 N5        -10.9335   -0.6484   59.6980 N.am    1  ZINC000740843182   -0.7200
      6 C6        -10.2871   -1.3245   58.7277 C.2     1  ZINC000740843182    0.5500
      7 O7         -9.2408   -0.8956   58.2816 O.2     1  ZINC000740843182   -0.5000
      8 C8        -10.8505   -2.5874   58.2059 C.ar    1  ZINC000740843182   -0.1300
      9 C9        -11.9259   -2.5607   57.3167 C.ar    1  ZINC000740843182    0.0200
     10 C10       -12.4466   -3.7430   56.8330 C.ar    1  ZINC000740843182   -0.6800
     11 S11       -13.8043   -3.7110   55.7103 S.o2    1  ZINC000740843182    2.7000
     12 O12       -14.1562   -5.0661   55.4674 O.2     1  ZINC000740843182   -0.9400
     13 O13       -14.7199   -2.7488   56.2152 O.2     1  ZINC000740843182   -0.9500
     14 N14       -13.2389   -3.1102   54.2744 N.am    1  ZINC000740843182   -1.0900
     15 C15       -12.1623   -3.8038   53.5633 C.3     1  ZINC000740843182    0.0800
     16 C16       -11.4748   -3.0560   52.4192 C.3     1  ZINC000740843182   -0.1800
     17 C17       -10.7391   -3.2715   53.7434 C.3     1  ZINC000740843182   -0.1900
     18 C18       -11.9054   -4.9540   57.2270 C.ar    1  ZINC000740843182    0.0100
     19 C19       -10.8396   -4.9888   58.1079 C.ar    1  ZINC000740843182   -0.1200
     20 C20       -10.3052   -3.8130   58.5961 C.ar    1  ZINC000740843182    0.0100
     21 Br21       -8.8482   -3.8620   59.8005 Br      1  ZINC000740843182    0.0100
     22 C22       -10.1469    1.4621   62.5513 C.3     1  ZINC000740843182   -0.1400
     23 C23        -9.8221    0.2763   63.4619 C.3     1  ZINC000740843182    0.1000
     24 H24       -10.7455   -0.1238   63.8808 H       1  ZINC000740843182    0.1000
     25 C25        -8.9064    0.7402   64.5965 C.3     1  ZINC000740843182   -0.1900
     26 O26        -9.1634   -0.7402   62.7037 O.3     1  ZINC000740843182   -0.5600
     27 H27       -12.6219    2.4802   62.0330 H       1  ZINC000740843182    0.0600
     28 H28       -11.4928    3.0258   60.7697 H       1  ZINC000740843182    0.0600
     29 H29       -12.7838    1.8677   60.3695 H       1  ZINC000740843182    0.0500
     30 H30       -10.4646    1.3819   59.4599 H       1  ZINC000740843182    0.0700
     31 H31        -9.3227    0.4555   60.4630 H       1  ZINC000740843182    0.0700
     32 H32       -11.7690   -0.9900   60.0531 H       1  ZINC000740843182    0.4000
     33 H33       -12.3496   -1.6164   57.0081 H       1  ZINC000740843182    0.1500
     34 H34       -13.6207   -2.2989   53.9043 H       1  ZINC000740843182    0.4200
     35 H35       -12.2868   -4.8815   53.4575 H       1  ZINC000740843182    0.1400
     36 H36       -11.1471   -3.6415   51.5603 H       1  ZINC000740843182    0.1100
     37 H37       -11.8235   -2.0477   52.1957 H       1  ZINC000740843182    0.1000
     38 H38       -10.6040   -2.4052   54.3909 H       1  ZINC000740843182    0.1000
     39 H39        -9.9275   -3.9990   53.7556 H       1  ZINC000740843182    0.1100
     40 H40       -12.3174   -5.8764   56.8449 H       1  ZINC000740843182    0.1600
     41 H41       -10.4219   -5.9374   58.4113 H       1  ZINC000740843182    0.1500
     42 H42        -9.2318    1.8184   62.0784 H       1  ZINC000740843182    0.0700
     43 H43       -10.5865    2.2649   63.1431 H       1  ZINC000740843182    0.0800
     44 H44        -9.4089    1.5155   65.1748 H       1  ZINC000740843182    0.0700
     45 H45        -8.6750   -0.1046   65.2452 H       1  ZINC000740843182    0.0600
     46 H46        -7.9831    1.1403   64.1776 H       1  ZINC000740843182    0.0600
     47 H47        -8.3505   -0.4441   62.2717 H       1  ZINC000740843182    0.3700
@<TRIPOS>BOND
     1     1     2    1
     2     1    27    1
     3     1    28    1
     4     1    29    1
     5     2     3    1
     6     2     4    1
     7     2    22    1
     8     4     5    1
     9     4    30    1
    10     4    31    1
    11     5     6   am
    12     5    32    1
    13     6     7    2
    14     6     8    1
    15     8    20   ar
    16     8     9   ar
    17     9    10   ar
    18     9    33    1
    19    10    11    1
    20    10    18   ar
    21    11    12    2
    22    11    13    2
    23    11    14   am
    24    14    15    1
    25    14    34    1
    26    15    17    1
    27    15    16    1
    28    15    35    1
    29    16    17    1
    30    16    36    1
    31    16    37    1
    32    17    38    1
    33    17    39    1
    34    18    19   ar
    35    18    40    1
    36    19    20   ar
    37    19    41    1
    38    20    21    1
    39    22    23    1
    40    22    42    1
    41    22    43    1
    42    23    24    1
    43    23    25    1
    44    23    26    1
    45    25    44    1
    46    25    45    1
    47    25    46    1
    48    26    47    1
@<TRIPOS>SUBSTRUCTURE
     1 ZINC000740843182        1 TEMP              0 ****  ****    0 ROOT


##########                                Name:    ZINC001411334959
##########                DOCK_Rotatable_Bonds:                   9
##########                         Heavy_Atoms:                  24
##########                    Molecular_Weight:              339.37
##########                DOCK_Rotatable_Bonds:                   9
##########                       Formal_Charge:           0.0199995
##########                     HBond_Acceptors:                   9
##########                        HBond_Donors:                   3
##########                         Heavy_Atoms:                  24
##########                          Grid_Score:          -36.972473
##########                     Grid_vdw_energy:          -33.018288
##########                      Grid_es_energy:           -3.954185
##########           Internal_energy_repulsive:            5.876352

@<TRIPOS>MOLECULE
ZINC001411334959
 46 48 1 0 0
SMALL
USER_CHARGES


@<TRIPOS>ATOM
      1 O1        -15.3992   -1.1056   53.6779 O.2     1  ZINC001411334959   -0.5400
      2 C2        -15.1456   -1.9852   52.8823 C.2     1  ZINC001411334959    0.5200
      3 C3        -15.0845   -1.6739   51.4091 C.3     1  ZINC001411334959   -0.1400
      4 C4        -13.6505   -1.3031   51.0252 C.3     1  ZINC001411334959   -0.0100
      5 C5        -13.6471   -0.6493   49.6674 C.2     1  ZINC001411334959    0.0100
      6 N6        -13.5129    0.6312   49.4058 N.2     1  ZINC001411334959   -0.2800
      7 N7        -13.5607    0.7994   48.1317 N.pl3   1  ZINC001411334959   -0.2500
      8 N8        -13.7226   -0.3251   47.5293 N.2     1  ZINC001411334959   -0.2800
      9 C9        -13.7799   -1.2810   48.4288 C.2     1  ZINC001411334959   -0.0200
     10 N10       -14.9129   -3.2398   53.3161 N.am    1  ZINC001411334959   -0.7200
     11 C11       -14.9723   -3.5424   54.7483 C.3     1  ZINC001411334959    0.1200
     12 C12       -14.2745   -4.8588   55.1293 C.3     1  ZINC001411334959   -0.1400
     13 C13       -13.7484   -4.1278   56.3758 C.3     1  ZINC001411334959   -0.1200
     14 C14       -12.2997   -4.4752   56.7242 C.3     1  ZINC001411334959    0.1300
     15 N15       -11.7314   -3.4157   57.5613 N.am    1  ZINC001411334959   -0.7200
     16 C16       -10.6329   -3.6594   58.3032 C.2     1  ZINC001411334959    0.5100
     17 O17       -10.1142   -4.7554   58.2769 O.2     1  ZINC001411334959   -0.5100
     18 C18       -10.0492   -2.5702   59.1657 C.3     1  ZINC001411334959    0.0700
     19 F19        -9.2470   -1.7123   58.4055 F       1  ZINC001411334959   -0.1800
     20 C20       -11.1710   -1.7826   59.8960 C.3     1  ZINC001411334959   -0.1600
     21 C21       -10.4169   -1.3019   61.1614 C.3     1  ZINC001411334959    0.0500
     22 O22        -9.5338   -2.3816   61.5045 O.3     1  ZINC001411334959   -0.3700
     23 C23        -9.2505   -3.1700   60.3428 C.3     1  ZINC001411334959    0.0400
     24 C24       -13.8936   -2.8229   55.5752 C.3     1  ZINC001411334959   -0.1400
     25 H25       -15.3984   -2.5487   50.8395 H       1  ZINC001411334959    0.1000
     26 H26       -15.7478   -0.8381   51.1864 H       1  ZINC001411334959    0.1000
     27 H27       -13.2443   -0.6111   51.7628 H       1  ZINC001411334959    0.1000
     28 H28       -13.0377   -2.2041   50.9962 H       1  ZINC001411334959    0.0900
     29 H29       -13.4852    1.6575   47.6860 H       1  ZINC001411334959    0.4700
     30 H30       -13.9100   -2.3377   48.2480 H       1  ZINC001411334959    0.2000
     31 H31       -14.7062   -3.9424   52.6801 H       1  ZINC001411334959    0.4000
     32 H32       -15.9765   -3.4439   55.1605 H       1  ZINC001411334959    0.1200
     33 H33       -14.9663   -5.6694   55.3579 H       1  ZINC001411334959    0.0800
     34 H34       -13.4898   -5.1545   54.4329 H       1  ZINC001411334959    0.0900
     35 H35       -14.4173   -4.1917   57.2341 H       1  ZINC001411334959    0.1000
     36 H36       -12.2730   -5.4203   57.2666 H       1  ZINC001411334959    0.0800
     37 H37       -11.7172   -4.5658   55.8074 H       1  ZINC001411334959    0.0800
     38 H38       -12.1455   -2.5388   57.5815 H       1  ZINC001411334959    0.4100
     39 H39       -11.5117   -0.9379   59.2972 H       1  ZINC001411334959    0.1000
     40 H40       -12.0026   -2.4363   60.1589 H       1  ZINC001411334959    0.1100
     41 H41        -9.8447   -0.4006   60.9413 H       1  ZINC001411334959    0.0700
     42 H42       -11.1202   -1.1157   61.9730 H       1  ZINC001411334959    0.1000
     43 H43        -9.5593   -4.2016   60.5116 H       1  ZINC001411334959    0.0900
     44 H44        -8.1836   -3.1335   60.1224 H       1  ZINC001411334959    0.0900
     45 H45       -13.0048   -2.5620   55.0006 H       1  ZINC001411334959    0.0900
     46 H46       -14.2779   -1.9900   56.1638 H       1  ZINC001411334959    0.0800
@<TRIPOS>BOND
     1     1     2    2
     2     2     3    1
     3     2    10   am
     4     3     4    1
     5     3    25    1
     6     3    26    1
     7     4     5    1
     8     4    27    1
     9     4    28    1
    10     5     9    1
    11     5     6    2
    12     6     7    1
    13     7     8    1
    14     7    29    1
    15     8     9    2
    16     9    30    1
    17    10    11    1
    18    10    31    1
    19    11    24    1
    20    11    12    1
    21    11    32    1
    22    12    13    1
    23    12    33    1
    24    12    34    1
    25    13    14    1
    26    13    24    1
    27    13    35    1
    28    14    15    1
    29    14    36    1
    30    14    37    1
    31    15    16   am
    32    15    38    1
    33    16    17    2
    34    16    18    1
    35    18    23    1
    36    18    19    1
    37    18    20    1
    38    20    21    1
    39    20    39    1
    40    20    40    1
    41    21    22    1
    42    21    41    1
    43    21    42    1
    44    22    23    1
    45    23    43    1
    46    23    44    1
    47    24    45    1
    48    24    46    1
@<TRIPOS>SUBSTRUCTURE
     1 ZINC001411334959        1 TEMP              0 ****  ****    0 ROOT


##########                                Name:    ZINC000981700465
##########                DOCK_Rotatable_Bonds:                   9
##########                         Heavy_Atoms:                  26
##########                    Molecular_Weight:             356.428
##########                DOCK_Rotatable_Bonds:                   9
##########                       Formal_Charge:               -0.01
##########                     HBond_Acceptors:                   8
##########                        HBond_Donors:                   3
##########                         Heavy_Atoms:                  26
##########                          Grid_Score:          -36.925266
##########                     Grid_vdw_energy:          -37.275204
##########                      Grid_es_energy:            0.349938
##########           Internal_energy_repulsive:           13.131526

@<TRIPOS>MOLECULE
ZINC000981700465
 50 52 1 0 0
SMALL
USER_CHARGES


@<TRIPOS>ATOM
      1 C1         -4.2802    1.1208   50.1461 C.3     1  ZINC000981700465   -0.1500
      2 C2         -5.3876    1.7496   50.9943 C.3     1  ZINC000981700465   -0.1100
      3 C3         -6.6923    0.9792   50.7820 C.3     1  ZINC000981700465   -0.0500
      4 C4         -7.8096    1.6704   51.5201 C.2     1  ZINC000981700465    0.1400
      5 N5         -7.9310    2.9572   51.6965 N.2     1  ZINC000981700465   -0.2900
      6 N6         -9.0968    3.2063   52.4291 N.pl3   1  ZINC000981700465   -0.4600
      7 C7         -9.6896    2.0321   52.6983 C.2     1  ZINC000981700465    0.1000
      8 C8         -8.9127    1.0387   52.1370 C.2     1  ZINC000981700465   -0.2900
      9 C9         -9.1784   -0.4108   52.1818 C.2     1  ZINC000981700465    0.5900
     10 O10        -8.2926   -1.1999   51.9151 O.2     1  ZINC000981700465   -0.5300
     11 N11       -10.4034   -0.8611   52.5185 N.am    1  ZINC000981700465   -0.7300
     12 C12       -10.6680   -2.3013   52.5613 C.3     1  ZINC000981700465    0.1300
     13 C13       -12.0003   -2.5542   53.2699 C.3     1  ZINC000981700465   -0.1100
     14 H14       -12.8322   -2.2402   52.6395 H       1  ZINC000981700465    0.0900
     15 C15       -12.1392   -4.0505   53.6453 C.3     1  ZINC000981700465   -0.1200
     16 C16       -13.1516   -4.0163   54.8169 C.3     1  ZINC000981700465   -0.1300
     17 C17       -12.7709   -2.7486   55.6091 C.3     1  ZINC000981700465    0.1400
     18 H18       -13.6694   -2.2601   55.9863 H       1  ZINC000981700465    0.1000
     19 N19       -11.8859   -3.0995   56.7226 N.am    1  ZINC000981700465   -0.7100
     20 C20       -11.6586   -2.2095   57.7089 C.2     1  ZINC000981700465    0.5600
     21 O21       -12.1865   -1.1156   57.6738 O.2     1  ZINC000981700465   -0.5200
     22 C22       -10.7651   -2.5650   58.8358 C.ar    1  ZINC000981700465   -0.1400
     23 C23       -10.6535   -1.7377   59.9607 C.ar    1  ZINC000981700465   -0.0600
     24 C24        -9.7978   -2.1370   60.9745 C.ar    1  ZINC000981700465    0.0400
     25 N25        -9.1216   -3.2635   60.8604 N.ar    1  ZINC000981700465   -0.2200
     26 N26        -9.2192   -4.0254   59.8331 N.ar    1  ZINC000981700465   -0.2400
     27 C27       -10.0088   -3.7402   58.8159 C.ar    1  ZINC000981700465    0.0700
     28 C28       -12.0403   -1.8160   54.6240 C.3     1  ZINC000981700465   -0.1200
     29 H29        -4.5602    1.1634   49.0935 H       1  ZINC000981700465    0.0600
     30 H30        -3.3507    1.6696   50.2974 H       1  ZINC000981700465    0.0600
     31 H31        -4.1408    0.0813   50.4432 H       1  ZINC000981700465    0.0500
     32 H32        -5.1076    1.7068   52.0468 H       1  ZINC000981700465    0.0600
     33 H33        -5.5269    2.7890   50.6972 H       1  ZINC000981700465    0.0600
     34 H34        -6.9257    0.9461   49.7178 H       1  ZINC000981700465    0.1000
     35 H35        -6.5803   -0.0366   51.1612 H       1  ZINC000981700465    0.0800
     36 H36        -9.4220    4.0799   52.6972 H       1  ZINC000981700465    0.4500
     37 H37       -10.6079    1.8910   53.2489 H       1  ZINC000981700465    0.1800
     38 H38       -11.1097   -0.2316   52.7324 H       1  ZINC000981700465    0.4000
     39 H39       -10.7171   -2.6921   51.5449 H       1  ZINC000981700465    0.0700
     40 H40        -9.8667   -2.8020   53.1047 H       1  ZINC000981700465    0.0700
     41 H41       -12.5368   -4.6235   52.8077 H       1  ZINC000981700465    0.0700
     42 H42       -11.1824   -4.4569   53.9732 H       1  ZINC000981700465    0.0700
     43 H43       -14.1707   -3.9379   54.4383 H       1  ZINC000981700465    0.0800
     44 H44       -13.0428   -4.9033   55.4411 H       1  ZINC000981700465    0.0700
     45 H45       -11.4637   -3.9723   56.7501 H       1  ZINC000981700465    0.4000
     46 H46       -11.2158   -0.8186   60.0350 H       1  ZINC000981700465    0.1700
     47 H47        -9.6844   -1.5259   61.8578 H       1  ZINC000981700465    0.1800
     48 H48       -10.0645   -4.4071   57.9682 H       1  ZINC000981700465    0.1700
     49 H49       -11.0256   -1.6250   54.9732 H       1  ZINC000981700465    0.0800
     50 H50       -12.5846   -0.8769   54.5252 H       1  ZINC000981700465    0.0800
@<TRIPOS>BOND
     1     1     2    1
     2     1    29    1
     3     1    30    1
     4     1    31    1
     5     2     3    1
     6     2    32    1
     7     2    33    1
     8     3     4    1
     9     3    34    1
    10     3    35    1
    11     4     8    1
    12     4     5    2
    13     5     6    1
    14     6     7    1
    15     6    36    1
    16     7     8    2
    17     7    37    1
    18     8     9    1
    19     9    10    2
    20     9    11   am
    21    11    12    1
    22    11    38    1
    23    12    13    1
    24    12    39    1
    25    12    40    1
    26    13    14    1
    27    13    28    1
    28    13    15    1
    29    15    16    1
    30    15    41    1
    31    15    42    1
    32    16    17    1
    33    16    43    1
    34    16    44    1
    35    17    18    1
    36    17    19    1
    37    17    28    1
    38    19    20   am
    39    19    45    1
    40    20    21    2
    41    20    22    1
    42    22    27   ar
    43    22    23   ar
    44    23    24   ar
    45    23    46    1
    46    24    25   ar
    47    24    47    1
    48    25    26   ar
    49    26    27   ar
    50    27    48    1
    51    28    49    1
    52    28    50    1
@<TRIPOS>SUBSTRUCTURE
     1 ZINC000981700465        1 TEMP              0 ****  ****    0 ROOT


##########                                Name:    ZINC000179496896
##########                DOCK_Rotatable_Bonds:                   8
##########                         Heavy_Atoms:                  27
##########                    Molecular_Weight:             396.504
##########                DOCK_Rotatable_Bonds:                   8
##########                       Formal_Charge:          0.00999944
##########                     HBond_Acceptors:                   8
##########                        HBond_Donors:                   1
##########                         Heavy_Atoms:                  27
##########                          Grid_Score:          -36.900600
##########                     Grid_vdw_energy:          -36.380878
##########                      Grid_es_energy:           -0.519723
##########           Internal_energy_repulsive:           25.323080

@<TRIPOS>MOLECULE
ZINC000179496896
 53 55 1 0 0
SMALL
USER_CHARGES


@<TRIPOS>ATOM
      1 C1          1.1285    0.8613   38.8995 C.3     1  ZINC000179496896   -0.1500
      2 C2          2.2353    0.2777   39.7799 C.3     1  ZINC000179496896   -0.1100
      3 C3          3.5974    0.5682   39.1464 C.3     1  ZINC000179496896   -0.1400
      4 C4          2.1722    0.9162   41.1688 C.3     1  ZINC000179496896    0.1200
      5 N5          0.9952    0.4158   41.8833 N.pl3   1  ZINC000179496896   -0.3300
      6 N6          0.1581   -0.6206   41.4551 N.2     1  ZINC000179496896   -0.2700
      7 C7         -0.7848   -0.7948   42.3394 C.2     1  ZINC000179496896    0.0800
      8 C8         -0.5838    0.1371   43.3822 C.2     1  ZINC000179496896   -0.2500
      9 C9         -1.4157    0.2926   44.5894 C.2     1  ZINC000179496896    0.5900
     10 O10        -1.9807   -0.6725   45.0670 O.2     1  ZINC000179496896   -0.5300
     11 N11        -1.5501    1.5045   45.1637 N.am    1  ZINC000179496896   -0.7100
     12 C12        -2.3782    1.6593   46.3623 C.3     1  ZINC000179496896    0.1300
     13 C13        -1.5820    2.3976   47.4402 C.3     1  ZINC000179496896    0.0700
     14 H14        -0.7042    1.8103   47.7098 H       1  ZINC000179496896    0.0900
     15 C15        -1.1389    3.7601   46.9037 C.3     1  ZINC000179496896   -0.1900
     16 N16        -2.4260    2.5896   48.6271 N.3     1  ZINC000179496896   -0.5300
     17 C17        -1.6061    2.7404   49.8377 C.3     1  ZINC000179496896    0.0600
     18 C18        -2.4709    3.3288   50.9592 C.3     1  ZINC000179496896   -0.0400
     19 C19        -3.7565    2.5317   51.0282 C.2     1  ZINC000179496896   -0.1700
     20 C20        -4.1816    1.7025   50.0543 C.2     1  ZINC000179496896   -0.1100
     21 C21        -5.3894    1.0772   50.3421 C.2     1  ZINC000179496896   -0.1200
     22 C22        -5.9337    1.3880   51.5152 C.2     1  ZINC000179496896   -0.2200
     23 S23        -4.9044    2.5379   52.3570 S.3     1  ZINC000179496896    0.1000
     24 C24        -3.3916    1.4917   48.7698 C.3     1  ZINC000179496896    0.1200
     25 C25         0.5412    0.8704   43.0622 C.2     1  ZINC000179496896    0.0700
     26 C26         1.1430    1.9834   43.8807 C.3     1  ZINC000179496896    0.3400
     27 F27         2.5262    2.0188   43.6744 F       1  ZINC000179496896   -0.1500
     28 F28         0.5821    3.2044   43.4912 F       1  ZINC000179496896   -0.2000
     29 H29         1.1735    0.4064   37.9099 H       1  ZINC000179496896    0.0600
     30 H30         0.1582    0.6543   39.3508 H       1  ZINC000179496896    0.0600
     31 H31         1.2654    1.9390   38.8104 H       1  ZINC000179496896    0.0600
     32 H32         2.0985   -0.8001   39.8689 H       1  ZINC000179496896    0.0800
     33 H33         3.7343    1.6459   39.0575 H       1  ZINC000179496896    0.0600
     34 H34         4.3860    0.1524   39.7737 H       1  ZINC000179496896    0.0600
     35 H35         3.6425    0.1133   38.1570 H       1  ZINC000179496896    0.0700
     36 H36         3.0724    0.6603   41.7277 H       1  ZINC000179496896    0.1000
     37 H37         2.1028    1.9993   41.0680 H       1  ZINC000179496896    0.1000
     38 H38        -1.5801   -1.5235   42.2841 H       1  ZINC000179496896    0.2000
     39 H39        -1.0985    2.2742   44.7834 H       1  ZINC000179496896    0.4100
     40 H40        -3.2721    2.2317   46.1148 H       1  ZINC000179496896    0.0700
     41 H41        -2.6674    0.6761   46.7335 H       1  ZINC000179496896    0.0700
     42 H42        -0.5717    4.2861   47.6716 H       1  ZINC000179496896    0.0600
     43 H43        -0.5127    3.6176   46.0229 H       1  ZINC000179496896    0.0700
     44 H44        -2.0167    4.3474   46.6341 H       1  ZINC000179496896    0.0600
     45 H45        -1.2257    1.7659   50.1440 H       1  ZINC000179496896    0.0400
     46 H46        -0.7715    3.4104   49.6315 H       1  ZINC000179496896    0.0900
     47 H47        -1.9414    3.2563   51.9090 H       1  ZINC000179496896    0.0800
     48 H48        -2.6963    4.3727   50.7411 H       1  ZINC000179496896    0.0900
     49 H49        -5.8556    0.3842   49.6574 H       1  ZINC000179496896    0.1400
     50 H50        -6.8656    0.9940   51.8930 H       1  ZINC000179496896    0.1600
     51 H51        -4.0717    1.4896   47.9181 H       1  ZINC000179496896    0.0900
     52 H52        -2.8601    0.5413   48.8191 H       1  ZINC000179496896    0.0500
     53 H53         0.9376    1.8098   44.9370 H       1  ZINC000179496896    0.1300
@<TRIPOS>BOND
     1     1     2    1
     2     1    29    1
     3     1    30    1
     4     1    31    1
     5     2     3    1
     6     2     4    1
     7     2    32    1
     8     3    33    1
     9     3    34    1
    10     3    35    1
    11     4     5    1
    12     4    36    1
    13     4    37    1
    14     5    25    1
    15     5     6    1
    16     6     7    2
    17     7     8    1
    18     7    38    1
    19     8     9    1
    20     8    25    2
    21     9    10    2
    22     9    11   am
    23    11    12    1
    24    11    39    1
    25    12    13    1
    26    12    40    1
    27    12    41    1
    28    13    14    1
    29    13    15    1
    30    13    16    1
    31    15    42    1
    32    15    43    1
    33    15    44    1
    34    16    24    1
    35    16    17    1
    36    17    18    1
    37    17    45    1
    38    17    46    1
    39    18    19    1
    40    18    47    1
    41    18    48    1
    42    19    23    1
    43    19    20    2
    44    20    21    1
    45    20    24    1
    46    21    22    2
    47    21    49    1
    48    22    23    1
    49    22    50    1
    50    24    51    1
    51    24    52    1
    52    25    26    1
    53    26    27    1
    54    26    28    1
    55    26    53    1
@<TRIPOS>SUBSTRUCTURE
     1 ZINC000179496896        1 TEMP              0 ****  ****    0 ROOT


##########                                Name:    ZINC001105194920
##########                DOCK_Rotatable_Bonds:                   8
##########                         Heavy_Atoms:                  25
##########                    Molecular_Weight:             346.392
##########                DOCK_Rotatable_Bonds:                   8
##########                       Formal_Charge:          -0.0100007
##########                     HBond_Acceptors:                  10
##########                        HBond_Donors:                   3
##########                         Heavy_Atoms:                  25
##########                          Grid_Score:          -36.889992
##########                     Grid_vdw_energy:          -34.122623
##########                      Grid_es_energy:           -2.767368
##########           Internal_energy_repulsive:            7.142666

@<TRIPOS>MOLECULE
ZINC001105194920
 47 49 1 0 0
SMALL
USER_CHARGES


@<TRIPOS>ATOM
      1 C1         -2.8397    2.3114   57.3137 C.3     1  ZINC001105194920    0.0300
      2 O2         -4.2220    2.5055   57.6195 O.3     1  ZINC001105194920   -0.3900
      3 C3         -4.8995    3.3820   56.7168 C.3     1  ZINC001105194920    0.0700
      4 C4         -6.3709    3.4927   57.1214 C.3     1  ZINC001105194920    0.0900
      5 H5         -6.4399    3.8744   58.1401 H       1  ZINC001105194920    0.0900
      6 C6         -7.0913    4.4489   56.1685 C.3     1  ZINC001105194920   -0.1800
      7 N7         -6.9991    2.1666   57.0519 N.3     1  ZINC001105194920   -0.6800
      8 C8         -8.3781    2.2102   57.5561 C.3     1  ZINC001105194920    0.1400
      9 C9         -8.7891    0.8346   58.0144 C.2     1  ZINC001105194920   -0.0200
     10 C10        -9.5098    0.5308   59.1191 C.2     1  ZINC001105194920   -0.0200
     11 N11        -9.6361   -0.8164   59.1280 N.pl3   1  ZINC001105194920   -0.2800
     12 C12       -10.3426   -1.6056   60.1400 C.3     1  ZINC001105194920    0.1000
     13 C13       -11.6776   -2.1929   59.6474 C.3     1  ZINC001105194920    0.1100
     14 N14       -10.8924   -3.3745   59.2408 N.am    1  ZINC001105194920   -0.6300
     15 C15       -11.0571   -4.3481   58.3234 C.2     1  ZINC001105194920    0.6200
     16 O16       -10.2189   -5.2208   58.2062 O.2     1  ZINC001105194920   -0.5400
     17 C17       -12.2561   -4.3546   57.4603 C.ar    1  ZINC001105194920   -0.0600
     18 N18       -13.4410   -4.6860   57.9650 N.ar    1  ZINC001105194920   -0.3700
     19 C19       -14.5083   -4.6908   57.1924 C.ar    1  ZINC001105194920   -0.0200
     20 C20       -14.4042   -4.3514   55.8510 C.ar    1  ZINC001105194920    0.1500
     21 N21       -13.2343   -4.0206   55.3357 N.ar    1  ZINC001105194920   -0.5100
     22 C22       -12.1511   -4.0053   56.1039 C.ar    1  ZINC001105194920    0.4200
     23 N23       -10.9242   -3.6591   55.5684 N.pl3   1  ZINC001105194920   -0.8100
     24 C24        -9.8545   -3.0620   60.2422 C.3     1  ZINC001105194920    0.1100
     25 N25        -9.0292   -1.2852   58.0943 N.2     1  ZINC001105194920   -0.0800
     26 N26        -8.5183   -0.3257   57.4065 N.2     1  ZINC001105194920   -0.2600
     27 H27        -2.3221    3.2702   57.3470 H       1  ZINC001105194920    0.0400
     28 H28        -2.3975    1.6342   58.0444 H       1  ZINC001105194920    0.0800
     29 H29        -2.7451    1.8819   56.3164 H       1  ZINC001105194920    0.0400
     30 H30        -4.4376    4.3687   56.7530 H       1  ZINC001105194920    0.0600
     31 H31        -4.8300    2.9851   55.7041 H       1  ZINC001105194920    0.0500
     32 H32        -7.0222    4.0671   55.1499 H       1  ZINC001105194920    0.0700
     33 H33        -8.1395    4.5277   56.4568 H       1  ZINC001105194920    0.0500
     34 H34        -6.6252    5.4328   56.2202 H       1  ZINC001105194920    0.0600
     35 H35        -6.9691    1.8011   56.1118 H       1  ZINC001105194920    0.3500
     36 H36        -8.4368    2.9050   58.3939 H       1  ZINC001105194920    0.0900
     37 H37        -9.0453    2.5426   56.7609 H       1  ZINC001105194920    0.0500
     38 H38        -9.9042    1.2241   59.8472 H       1  ZINC001105194920    0.1800
     39 H39       -10.4130   -1.0978   61.1020 H       1  ZINC001105194920    0.1500
     40 H40       -12.3911   -2.3933   60.4467 H       1  ZINC001105194920    0.1200
     41 H41       -12.1156   -1.6476   58.8113 H       1  ZINC001105194920    0.1000
     42 H42       -15.4690   -4.9607   57.6053 H       1  ZINC001105194920    0.1800
     43 H43       -15.2845   -4.3581   55.2253 H       1  ZINC001105194920    0.1800
     44 H44       -10.8650   -3.3522   54.6502 H       1  ZINC001105194920    0.4000
     45 H45       -10.1227   -3.7231   56.1110 H       1  ZINC001105194920    0.4300
     46 H46        -8.8367   -3.2106   59.8812 H       1  ZINC001105194920    0.1100
     47 H47       -10.0323   -3.5177   61.2163 H       1  ZINC001105194920    0.1200
@<TRIPOS>BOND
     1     1     2    1
     2     1    27    1
     3     1    28    1
     4     1    29    1
     5     2     3    1
     6     3     4    1
     7     3    30    1
     8     3    31    1
     9     4     5    1
    10     4     6    1
    11     4     7    1
    12     6    32    1
    13     6    33    1
    14     6    34    1
    15     7     8    1
    16     7    35    1
    17     8     9    1
    18     8    36    1
    19     8    37    1
    20     9    26    1
    21     9    10    2
    22    10    11    1
    23    10    38    1
    24    11    12    1
    25    11    25    1
    26    12    24    1
    27    12    13    1
    28    12    39    1
    29    13    14    1
    30    13    40    1
    31    13    41    1
    32    14    15   am
    33    14    24    1
    34    15    16    2
    35    15    17    1
    36    17    22   ar
    37    17    18   ar
    38    18    19   ar
    39    19    20   ar
    40    19    42    1
    41    20    21   ar
    42    20    43    1
    43    21    22   ar
    44    22    23    1
    45    23    44    1
    46    23    45    1
    47    24    46    1
    48    24    47    1
    49    25    26    2
@<TRIPOS>SUBSTRUCTURE
     1 ZINC001105194920        1 TEMP              0 ****  ****    0 ROOT


##########                                Name:    ZINC000298969660
##########                DOCK_Rotatable_Bonds:                  10
##########                         Heavy_Atoms:                  29
##########                    Molecular_Weight:             397.474
##########                DOCK_Rotatable_Bonds:                  10
##########                       Formal_Charge:          -0.0100008
##########                     HBond_Acceptors:                   7
##########                        HBond_Donors:                   2
##########                         Heavy_Atoms:                  29
##########                          Grid_Score:          -36.880333
##########                     Grid_vdw_energy:          -36.942638
##########                      Grid_es_energy:            0.062307
##########           Internal_energy_repulsive:            9.893675

@<TRIPOS>MOLECULE
ZINC000298969660
 56 58 1 0 0
SMALL
USER_CHARGES


@<TRIPOS>ATOM
      1 C1         -9.2756   -3.7408   60.2664 C.3     1  ZINC000298969660    0.0800
      2 N2         -9.8041   -2.5698   59.5623 N.am    1  ZINC000298969660   -0.6300
      3 C3         -9.4737   -1.2221   60.0318 C.3     1  ZINC000298969660    0.1400
      4 C4        -10.2225   -0.9382   61.3354 C.3     1  ZINC000298969660    0.0700
      5 H5        -10.4207   -1.8770   61.8526 H       1  ZINC000298969660    0.0500
      6 C6        -11.5476   -0.2387   61.0212 C.3     1  ZINC000298969660   -0.1500
      7 C7        -12.2632    0.0959   62.3335 C.3     1  ZINC000298969660   -0.1200
      8 C8        -11.3408    0.9597   63.1993 C.3     1  ZINC000298969660   -0.1600
      9 C9        -10.0237    0.2140   63.4294 C.3     1  ZINC000298969660    0.0600
     10 O10        -9.4255   -0.0940   62.1688 O.3     1  ZINC000298969660   -0.3600
     11 C11       -10.5942   -2.7326   58.4826 C.2     1  ZINC000298969660    0.7100
     12 O12       -11.0316   -1.7607   57.8974 O.2     1  ZINC000298969660   -0.5400
     13 N13       -10.8995   -3.9726   58.0517 N.am    1  ZINC000298969660   -0.6900
     14 C14       -11.7198   -4.1415   56.9306 C.ar    1  ZINC000298969660    0.2000
     15 C15       -12.9927   -4.6778   57.0750 C.ar    1  ZINC000298969660   -0.1800
     16 C16       -13.8025   -4.8451   55.9680 C.ar    1  ZINC000298969660   -0.0600
     17 C17       -13.3487   -4.4792   54.7153 C.ar    1  ZINC000298969660   -0.2300
     18 C18       -12.0774   -3.9426   54.5651 C.ar    1  ZINC000298969660    0.1500
     19 O19       -11.6323   -3.5836   53.3323 O.3     1  ZINC000298969660   -0.2900
     20 C20       -12.3088   -2.5023   52.6877 C.3     1  ZINC000298969660    0.0400
     21 C21       -11.3810   -1.3192   52.5850 C.2     1  ZINC000298969660    0.5100
     22 O22       -11.5602   -0.4807   51.7273 O.2     1  ZINC000298969660   -0.4900
     23 N23       -10.3522   -1.1930   53.4464 N.am    1  ZINC000298969660   -0.6700
     24 C24        -9.4907   -0.0944   53.3511 C.ar    1  ZINC000298969660    0.1400
     25 C25        -9.7481    1.0573   54.0831 C.ar    1  ZINC000298969660   -0.1400
     26 C26        -8.8959    2.1398   53.9868 C.ar    1  ZINC000298969660   -0.1000
     27 C27        -7.7876    2.0780   53.1623 C.ar    1  ZINC000298969660   -0.1300
     28 C28        -7.5288    0.9329   52.4316 C.ar    1  ZINC000298969660   -0.1000
     29 C29        -8.3735   -0.1556   52.5286 C.ar    1  ZINC000298969660   -0.1200
     30 C30       -11.2645   -3.7681   55.6738 C.ar    1  ZINC000298969660   -0.1500
     31 H31        -9.9732   -4.0399   61.0488 H       1  ZINC000298969660    0.0600
     32 H32        -9.1474   -4.5618   59.5608 H       1  ZINC000298969660    0.0700
     33 H33        -8.3131   -3.4922   60.7134 H       1  ZINC000298969660    0.0800
     34 H34        -8.4000   -1.1513   60.2067 H       1  ZINC000298969660    0.1000
     35 H35        -9.7677   -0.4922   59.2776 H       1  ZINC000298969660    0.0900
     36 H36       -11.3523    0.6801   60.4682 H       1  ZINC000298969660    0.0800
     37 H37       -12.1750   -0.8990   60.4224 H       1  ZINC000298969660    0.0700
     38 H38       -13.1807    0.6439   62.1192 H       1  ZINC000298969660    0.0700
     39 H39       -12.5028   -0.8259   62.8636 H       1  ZINC000298969660    0.0600
     40 H40       -11.1414    1.9027   62.6903 H       1  ZINC000298969660    0.0700
     41 H41       -11.8203    1.1566   64.1582 H       1  ZINC000298969660    0.0700
     42 H42        -9.3470    0.8418   64.0091 H       1  ZINC000298969660    0.0900
     43 H43       -10.2194   -0.7096   63.9742 H       1  ZINC000298969660    0.0400
     44 H44       -10.5505   -4.7479   58.5186 H       1  ZINC000298969660    0.4100
     45 H45       -13.3497   -4.9646   58.0531 H       1  ZINC000298969660    0.1300
     46 H46       -14.7918   -5.2629   56.0821 H       1  ZINC000298969660    0.1300
     47 H47       -13.9840   -4.6111   53.8519 H       1  ZINC000298969660    0.1300
     48 H48       -12.6167   -2.8105   51.6886 H       1  ZINC000298969660    0.1000
     49 H49       -13.1879   -2.2253   53.2696 H       1  ZINC000298969660    0.1000
     50 H50       -10.2089   -1.8635   54.1324 H       1  ZINC000298969660    0.4100
     51 H51       -10.6140    1.1064   54.7268 H       1  ZINC000298969660    0.1300
     52 H52        -9.0956    3.0357   54.5560 H       1  ZINC000298969660    0.1300
     53 H53        -7.1230    2.9260   53.0884 H       1  ZINC000298969660    0.1200
     54 H54        -6.6627    0.8879   51.7880 H       1  ZINC000298969660    0.1300
     55 H55        -8.1708   -1.0497   51.9578 H       1  ZINC000298969660    0.1300
     56 H56       -10.2750   -3.3508   55.5588 H       1  ZINC000298969660    0.1500
@<TRIPOS>BOND
     1     1     2    1
     2     1    31    1
     3     1    32    1
     4     1    33    1
     5     2     3    1
     6     2    11   am
     7     3     4    1
     8     3    34    1
     9     3    35    1
    10     4     5    1
    11     4    10    1
    12     4     6    1
    13     6     7    1
    14     6    36    1
    15     6    37    1
    16     7     8    1
    17     7    38    1
    18     7    39    1
    19     8     9    1
    20     8    40    1
    21     8    41    1
    22     9    10    1
    23     9    42    1
    24     9    43    1
    25    11    12    2
    26    11    13   am
    27    13    14    1
    28    13    44    1
    29    14    30   ar
    30    14    15   ar
    31    15    16   ar
    32    15    45    1
    33    16    17   ar
    34    16    46    1
    35    17    18   ar
    36    17    47    1
    37    18    19    1
    38    18    30   ar
    39    19    20    1
    40    20    21    1
    41    20    48    1
    42    20    49    1
    43    21    22    2
    44    21    23   am
    45    23    24    1
    46    23    50    1
    47    24    29   ar
    48    24    25   ar
    49    25    26   ar
    50    25    51    1
    51    26    27   ar
    52    26    52    1
    53    27    28   ar
    54    27    53    1
    55    28    29   ar
    56    28    54    1
    57    29    55    1
    58    30    56    1
@<TRIPOS>SUBSTRUCTURE
     1 ZINC000298969660        1 TEMP              0 ****  ****    0 ROOT


##########                                Name:    ZINC001124460178
##########                DOCK_Rotatable_Bonds:                  12
##########                         Heavy_Atoms:                  22
##########                    Molecular_Weight:             328.479
##########                DOCK_Rotatable_Bonds:                  12
##########                       Formal_Charge:          -0.0100003
##########                     HBond_Acceptors:                   7
##########                        HBond_Donors:                   2
##########                         Heavy_Atoms:                  22
##########                          Grid_Score:          -36.863720
##########                     Grid_vdw_energy:          -36.473083
##########                      Grid_es_energy:           -0.390638
##########           Internal_energy_repulsive:           15.907276

@<TRIPOS>MOLECULE
ZINC001124460178
 50 50 1 0 0
SMALL
USER_CHARGES


@<TRIPOS>ATOM
      1 C1         -9.7072   -0.3308   53.2355 C.3     1  ZINC001124460178   -0.0700
      2 C2         -8.5774   -0.3766   52.2393 C.2     1  ZINC001124460178    0.3100
      3 N3         -8.2264   -1.4943   51.6731 N.2     1  ZINC001124460178   -0.5000
      4 S4         -6.9360   -1.1028   50.6388 S.3     1  ZINC001124460178    0.1800
      5 C5         -6.9450    0.5737   51.0365 C.2     1  ZINC001124460178    0.3400
      6 N6         -6.1131    1.5612   50.5406 N.pl3   1  ZINC001124460178   -0.6600
      7 C7         -4.7287    1.2418   50.1836 C.3     1  ZINC001124460178    0.0900
      8 C8         -3.7857    2.2459   50.8495 C.3     1  ZINC001124460178    0.0800
      9 H9         -4.0797    3.2586   50.5738 H       1  ZINC001124460178    0.1200
     10 O10        -3.8584    2.0986   52.2690 O.3     1  ZINC001124460178   -0.5500
     11 C11        -2.3520    1.9861   50.3826 C.3     1  ZINC001124460178    0.0900
     12 N12        -1.6800    3.2641   50.1346 N.am    1  ZINC001124460178   -0.6100
     13 C13        -1.2922    4.1183   51.2599 C.3     1  ZINC001124460178    0.0800
     14 C14        -1.4187    3.6540   48.8713 C.2     1  ZINC001124460178    0.5100
     15 O15        -0.8611    4.7113   48.6660 O.2     1  ZINC001124460178   -0.5400
     16 C16        -1.8193    2.7763   47.7137 C.3     1  ZINC001124460178   -0.1400
     17 C17        -1.5660    3.5180   46.3996 C.3     1  ZINC001124460178   -0.1100
     18 C18        -2.0470    2.6592   45.2283 C.3     1  ZINC001124460178   -0.1200
     19 C19        -1.0077    1.5771   44.9287 C.3     1  ZINC001124460178   -0.1200
     20 C20        -1.7102    0.2290   44.7561 C.3     1  ZINC001124460178   -0.1000
     21 C21        -0.8979   -0.6512   43.8039 C.3     1  ZINC001124460178   -0.1500
     22 C22        -1.8270   -0.4630   46.1156 C.3     1  ZINC001124460178   -0.1500
     23 N23        -7.9194    0.7110   51.9109 N.2     1  ZINC001124460178   -0.5800
     24 H24       -10.6457   -0.1472   52.7124 H       1  ZINC001124460178    0.0900
     25 H25        -9.7655   -1.2829   53.7629 H       1  ZINC001124460178    0.0900
     26 H26        -9.5277    0.4710   53.9518 H       1  ZINC001124460178    0.0900
     27 H27        -6.4465    2.4654   50.4293 H       1  ZINC001124460178    0.4200
     28 H28        -4.4882    0.2353   50.5258 H       1  ZINC001124460178    0.0800
     29 H29        -4.6110    1.2953   49.1012 H       1  ZINC001124460178    0.0900
     30 H30        -4.7528    2.1793   52.6275 H       1  ZINC001124460178    0.3800
     31 H31        -1.8128    1.4357   51.1536 H       1  ZINC001124460178    0.0900
     32 H32        -2.3697    1.4006   49.4634 H       1  ZINC001124460178    0.1000
     33 H33        -0.2838    3.8588   51.5822 H       1  ZINC001124460178    0.0600
     34 H34        -1.3169    5.1626   50.9486 H       1  ZINC001124460178    0.0800
     35 H35        -1.9875    3.9688   52.0859 H       1  ZINC001124460178    0.0800
     36 H36        -1.2308    1.8590   47.7324 H       1  ZINC001124460178    0.0900
     37 H37        -2.8782    2.5302   47.7936 H       1  ZINC001124460178    0.0900
     38 H38        -2.1098    4.4627   46.4049 H       1  ZINC001124460178    0.0700
     39 H39        -0.4991    3.7136   46.2927 H       1  ZINC001124460178    0.0700
     40 H40        -2.9959    2.1896   45.4877 H       1  ZINC001124460178    0.0600
     41 H41        -2.1813    3.2877   44.3480 H       1  ZINC001124460178    0.0600
     42 H42        -0.4747    1.8291   44.0119 H       1  ZINC001124460178    0.0600
     43 H43        -0.2996    1.5146   45.7551 H       1  ZINC001124460178    0.0600
     44 H44        -2.7061    0.3886   44.3427 H       1  ZINC001124460178    0.0700
     45 H45         0.0980   -0.8107   44.2172 H       1  ZINC001124460178    0.0500
     46 H46        -1.3985   -1.6116   43.6809 H       1  ZINC001124460178    0.0500
     47 H47        -0.8147   -0.1583   42.8354 H       1  ZINC001124460178    0.0500
     48 H48        -2.4057    0.1641   46.7939 H       1  ZINC001124460178    0.0600
     49 H49        -2.3276   -1.4234   45.9927 H       1  ZINC001124460178    0.0500
     50 H50        -0.8312   -0.6226   46.5289 H       1  ZINC001124460178    0.0500
@<TRIPOS>BOND
     1     1     2    1
     2     1    24    1
     3     1    25    1
     4     1    26    1
     5     2    23    1
     6     2     3    2
     7     3     4    1
     8     4     5    1
     9     5     6    1
    10     5    23    2
    11     6     7    1
    12     6    27    1
    13     7     8    1
    14     7    28    1
    15     7    29    1
    16     8     9    1
    17     8    10    1
    18     8    11    1
    19    10    30    1
    20    11    12    1
    21    11    31    1
    22    11    32    1
    23    12    13    1
    24    12    14   am
    25    13    33    1
    26    13    34    1
    27    13    35    1
    28    14    15    2
    29    14    16    1
    30    16    17    1
    31    16    36    1
    32    16    37    1
    33    17    18    1
    34    17    38    1
    35    17    39    1
    36    18    19    1
    37    18    40    1
    38    18    41    1
    39    19    20    1
    40    19    42    1
    41    19    43    1
    42    20    21    1
    43    20    22    1
    44    20    44    1
    45    21    45    1
    46    21    46    1
    47    21    47    1
    48    22    48    1
    49    22    49    1
    50    22    50    1
@<TRIPOS>SUBSTRUCTURE
     1 ZINC001124460178        1 TEMP              0 ****  ****    0 ROOT


##########                                Name:    ZINC000562561773
##########                DOCK_Rotatable_Bonds:                   6
##########                         Heavy_Atoms:                  26
##########                    Molecular_Weight:             371.466
##########                DOCK_Rotatable_Bonds:                   6
##########                       Formal_Charge:           0.0199999
##########                     HBond_Acceptors:                   9
##########                        HBond_Donors:                   0
##########                         Heavy_Atoms:                  26
##########                          Grid_Score:          -36.834587
##########                     Grid_vdw_energy:          -34.792130
##########                      Grid_es_energy:           -2.042456
##########           Internal_energy_repulsive:            8.639014

@<TRIPOS>MOLECULE
ZINC000562561773
 47 50 1 0 0
SMALL
USER_CHARGES


@<TRIPOS>ATOM
      1 C1        -13.5304   -2.1547   52.1657 C.3     1  ZINC000562561773   -0.1100
      2 C2        -12.8343   -2.5589   53.4398 C.ar    1  ZINC000562561773   -0.0400
      3 C3        -13.1820   -3.7379   54.0709 C.ar    1  ZINC000562561773   -0.1200
      4 C4        -12.5480   -4.1138   55.2386 C.ar    1  ZINC000562561773   -0.0700
      5 C5        -11.5543   -3.3039   55.7845 C.ar    1  ZINC000562561773   -0.0300
      6 C6        -10.8717   -3.7071   57.0393 C.2     1  ZINC000562561773    0.2200
      7 N7        -10.7078   -4.9287   57.4757 N.2     1  ZINC000562561773   -0.3700
      8 O8        -10.1100   -4.9177   58.5310 O.3     1  ZINC000562561773    0.0900
      9 C9         -9.8255   -3.6599   58.8828 C.2     1  ZINC000562561773    0.1900
     10 C10        -9.0924   -3.2217   60.1244 C.3     1  ZINC000562561773   -0.0100
     11 C11        -9.6863   -1.9054   60.6296 C.3     1  ZINC000562561773   -0.1200
     12 S12        -8.8751   -1.4319   62.1768 S.3     1  ZINC000562561773    0.0600
     13 C13        -9.7465    0.0567   62.5361 C.2     1  ZINC000562561773    0.2100
     14 N14       -10.7157    0.5869   61.8219 N.2     1  ZINC000562561773   -0.3300
     15 N15       -11.1320    1.6735   62.3650 N.2     1  ZINC000562561773   -0.0300
     16 N16       -10.4730    1.9151   63.4462 N.2     1  ZINC000562561773   -0.0700
     17 N17        -9.5486    0.8675   63.6023 N.pl3   1  ZINC000562561773   -0.3600
     18 C18        -8.5738    0.6948   64.6821 C.3     1  ZINC000562561773    0.0800
     19 N19       -10.2977   -2.8802   57.9423 N.2     1  ZINC000562561773   -0.4600
     20 C20       -11.2029   -2.1156   55.1497 C.ar    1  ZINC000562561773   -0.1100
     21 C21       -11.8402   -1.7475   53.9741 C.ar    1  ZINC000562561773    0.0800
     22 N22       -11.4908   -0.5564   53.3332 N.3     1  ZINC000562561773   -0.4800
     23 C23       -11.6143    0.6007   54.2562 C.3     1  ZINC000562561773    0.0400
     24 C24       -10.7228    1.6802   53.5926 C.3     1  ZINC000562561773   -0.1200
     25 C25        -9.5388    0.8566   53.0360 C.3     1  ZINC000562561773   -0.1300
     26 C26       -10.0756   -0.5808   52.9041 C.3     1  ZINC000562561773    0.0400
     27 H27       -12.9908   -2.5637   51.3115 H       1  ZINC000562561773    0.0700
     28 H28       -14.5497   -2.5409   52.1703 H       1  ZINC000562561773    0.0600
     29 H29       -13.5540   -1.0674   52.0938 H       1  ZINC000562561773    0.0800
     30 H30       -13.9522   -4.3671   53.6497 H       1  ZINC000562561773    0.1400
     31 H31       -12.8229   -5.0360   55.7291 H       1  ZINC000562561773    0.1400
     32 H32        -9.1941   -3.9858   60.8951 H       1  ZINC000562561773    0.1200
     33 H33        -8.0371   -3.0787   59.8918 H       1  ZINC000562561773    0.1300
     34 H34        -9.5295   -1.1261   59.8839 H       1  ZINC000562561773    0.1100
     35 H35       -10.7549   -2.0320   60.8036 H       1  ZINC000562561773    0.1100
     36 H36        -9.0258    0.1210   65.4912 H       1  ZINC000562561773    0.1000
     37 H37        -7.7015    0.1627   64.3026 H       1  ZINC000562561773    0.1000
     38 H38        -8.2689    1.6722   65.0561 H       1  ZINC000562561773    0.1100
     39 H39       -10.4335   -1.4845   55.5692 H       1  ZINC000562561773    0.1300
     40 H40       -12.6491    0.9384   54.3135 H       1  ZINC000562561773    0.0900
     41 H41       -11.2364    0.3452   55.2462 H       1  ZINC000562561773    0.0500
     42 H42       -11.2583    2.1798   52.7852 H       1  ZINC000562561773    0.0800
     43 H43       -10.3765    2.4024   54.3319 H       1  ZINC000562561773    0.0700
     44 H44        -9.2373    1.2388   52.0607 H       1  ZINC000562561773    0.0800
     45 H45        -8.6990    0.8845   53.7304 H       1  ZINC000562561773    0.0700
     46 H46        -9.5044   -1.2509   53.5465 H       1  ZINC000562561773    0.0500
     47 H47       -10.0077   -0.9088   51.8669 H       1  ZINC000562561773    0.0800
@<TRIPOS>BOND
     1     1     2    1
     2     1    27    1
     3     1    28    1
     4     1    29    1
     5     2    21   ar
     6     2     3   ar
     7     3     4   ar
     8     3    30    1
     9     4     5   ar
    10     4    31    1
    11     5     6    1
    12     5    20   ar
    13     6    19    1
    14     6     7    2
    15     7     8    1
    16     8     9    1
    17     9    10    1
    18     9    19    2
    19    10    11    1
    20    10    32    1
    21    10    33    1
    22    11    12    1
    23    11    34    1
    24    11    35    1
    25    12    13    1
    26    13    17    1
    27    13    14    2
    28    14    15    1
    29    15    16    2
    30    16    17    1
    31    17    18    1
    32    18    36    1
    33    18    37    1
    34    18    38    1
    35    20    21   ar
    36    20    39    1
    37    21    22    1
    38    22    26    1
    39    22    23    1
    40    23    24    1
    41    23    40    1
    42    23    41    1
    43    24    25    1
    44    24    42    1
    45    24    43    1
    46    25    26    1
    47    25    44    1
    48    25    45    1
    49    26    46    1
    50    26    47    1
@<TRIPOS>SUBSTRUCTURE
     1 ZINC000562561773        1 TEMP              0 ****  ****    0 ROOT


##########                                Name:    ZINC000859608860
##########                DOCK_Rotatable_Bonds:                   8
##########                         Heavy_Atoms:                  24
##########                    Molecular_Weight:             394.268
##########                DOCK_Rotatable_Bonds:                   8
##########                       Formal_Charge:          -0.0200003
##########                     HBond_Acceptors:                   6
##########                        HBond_Donors:                   1
##########                         Heavy_Atoms:                  24
##########                          Grid_Score:          -36.821255
##########                     Grid_vdw_energy:          -35.608658
##########                      Grid_es_energy:           -1.212598
##########           Internal_energy_repulsive:           10.101235

@<TRIPOS>MOLECULE
ZINC000859608860
 44 45 1 0 0
SMALL
USER_CHARGES


@<TRIPOS>ATOM
      1 C1        -11.1128   -3.5338   53.0666 C.3     1  ZINC000859608860   -0.1400
      2 C2        -11.7095   -2.1253   53.0994 C.3     1  ZINC000859608860   -0.0800
      3 C3        -10.6420   -1.1297   53.5576 C.3     1  ZINC000859608860   -0.1400
      4 C4        -12.1947   -1.7444   51.6992 C.3     1  ZINC000859608860   -0.1400
      5 C5        -12.8885   -2.0935   54.0739 C.3     1  ZINC000859608860    0.1300
      6 N6        -12.3982   -2.2922   55.4401 N.am    1  ZINC000859608860   -0.7300
      7 C7        -12.5408   -3.4908   56.0396 C.2     1  ZINC000859608860    0.5100
      8 O8        -13.0763   -4.4045   55.4486 O.2     1  ZINC000859608860   -0.5100
      9 C9        -12.0349   -3.6957   57.4442 C.3     1  ZINC000859608860    0.0500
     10 O10       -10.6170   -4.0062   57.4075 O.3     1  ZINC000859608860   -0.3100
     11 C11        -9.9366   -3.8981   58.5662 C.2     1  ZINC000859608860    0.5600
     12 O12        -9.4970   -4.8935   59.1079 O.2     1  ZINC000859608860   -0.5100
     13 C13        -9.7261   -2.5752   59.1752 C.2     1  ZINC000859608860   -0.0400
     14 C14        -9.6589   -2.3042   60.5116 C.2     1  ZINC000859608860    0.0500
     15 N15        -9.4550   -0.9640   60.6306 N.pl3   1  ZINC000859608860   -0.4100
     16 C16        -9.3238   -0.2492   61.8298 C.ar    1  ZINC000859608860    0.1400
     17 C17        -8.7269   -0.8450   62.9326 C.ar    1  ZINC000859608860   -0.1200
     18 C18        -8.5983   -0.1387   64.1125 C.ar    1  ZINC000859608860   -0.0600
     19 C19        -9.0640    1.1616   64.1961 C.ar    1  ZINC000859608860   -0.1000
     20 Br20       -8.8864    2.1256   65.8131 Br      1  ZINC000859608860   -0.0300
     21 C21        -9.6588    1.7576   63.0984 C.ar    1  ZINC000859608860   -0.0600
     22 C22        -9.7854    1.0573   61.9147 C.ar    1  ZINC000859608860   -0.1200
     23 C23        -9.4015   -0.4431   59.3740 C.2     1  ZINC000859608860    0.2000
     24 N24        -9.5575   -1.4036   58.5098 N.2     1  ZINC000859608860   -0.4300
     25 H25       -10.7670   -3.8052   54.0640 H       1  ZINC000859608860    0.0500
     26 H26       -11.8733   -4.2430   52.7401 H       1  ZINC000859608860    0.0600
     27 H27       -10.2728   -3.5565   52.3722 H       1  ZINC000859608860    0.0600
     28 H28        -9.8020   -1.1523   52.8633 H       1  ZINC000859608860    0.0600
     29 H29       -11.0670   -0.1262   53.5809 H       1  ZINC000859608860    0.0600
     30 H30       -10.2962   -1.4011   54.5551 H       1  ZINC000859608860    0.0500
     31 H31       -12.9553   -2.4536   51.3728 H       1  ZINC000859608860    0.0600
     32 H32       -12.6198   -0.7409   51.7226 H       1  ZINC000859608860    0.0600
     33 H33       -11.3547   -1.7670   51.0049 H       1  ZINC000859608860    0.0600
     34 H34       -13.3910   -1.1287   54.0049 H       1  ZINC000859608860    0.0700
     35 H35       -13.5906   -2.8878   53.8207 H       1  ZINC000859608860    0.0700
     36 H36       -11.9710   -1.5611   55.9132 H       1  ZINC000859608860    0.4000
     37 H37       -12.1928   -2.7860   58.0237 H       1  ZINC000859608860    0.1000
     38 H38       -12.5756   -4.5206   57.9084 H       1  ZINC000859608860    0.1000
     39 H39        -9.7503   -3.0160   61.3187 H       1  ZINC000859608860    0.2000
     40 H40        -8.3636   -1.8600   62.8680 H       1  ZINC000859608860    0.1400
     41 H41        -8.1344   -0.6019   64.9707 H       1  ZINC000859608860    0.1500
     42 H42       -10.0216    2.7727   63.1660 H       1  ZINC000859608860    0.1500
     43 H43       -10.2499    1.5231   61.0582 H       1  ZINC000859608860    0.1500
     44 H44        -9.2500    0.5987   59.1331 H       1  ZINC000859608860    0.2200
@<TRIPOS>BOND
     1     1     2    1
     2     1    25    1
     3     1    26    1
     4     1    27    1
     5     2     3    1
     6     2     4    1
     7     2     5    1
     8     3    28    1
     9     3    29    1
    10     3    30    1
    11     4    31    1
    12     4    32    1
    13     4    33    1
    14     5     6    1
    15     5    34    1
    16     5    35    1
    17     6     7   am
    18     6    36    1
    19     7     8    2
    20     7     9    1
    21     9    10    1
    22     9    37    1
    23     9    38    1
    24    10    11    1
    25    11    12    2
    26    11    13    1
    27    13    24    1
    28    13    14    2
    29    14    15    1
    30    14    39    1
    31    15    16    1
    32    15    23    1
    33    16    22   ar
    34    16    17   ar
    35    17    18   ar
    36    17    40    1
    37    18    19   ar
    38    18    41    1
    39    19    20    1
    40    19    21   ar
    41    21    22   ar
    42    21    42    1
    43    22    43    1
    44    23    24    2
    45    23    44    1
@<TRIPOS>SUBSTRUCTURE
     1 ZINC000859608860        1 TEMP              0 ****  ****    0 ROOT


##########                                Name:    ZINC000558213406
##########                DOCK_Rotatable_Bonds:                   8
##########                         Heavy_Atoms:                  30
##########                    Molecular_Weight:               408.5
##########                DOCK_Rotatable_Bonds:                   8
##########                       Formal_Charge:          -0.0299987
##########                     HBond_Acceptors:                   7
##########                        HBond_Donors:                   2
##########                         Heavy_Atoms:                  30
##########                          Grid_Score:          -36.803383
##########                     Grid_vdw_energy:          -34.707340
##########                      Grid_es_energy:           -2.096043
##########           Internal_energy_repulsive:            8.984013

@<TRIPOS>MOLECULE
ZINC000558213406
 58 61 1 0 0
SMALL
USER_CHARGES


@<TRIPOS>ATOM
      1 O1        -10.9505   -1.4174   61.0260 O.2     1  ZINC000558213406   -0.5700
      2 C2         -9.7373   -1.4405   60.9480 C.2     1  ZINC000558213406    0.7100
      3 N3         -9.1416   -1.9849   59.8686 N.am    1  ZINC000558213406   -0.6800
      4 C4         -9.9205   -2.5296   58.8387 C.ar    1  ZINC000558213406    0.1700
      5 C5        -10.2049   -3.8886   58.8277 C.ar    1  ZINC000558213406   -0.1300
      6 C6        -10.9728   -4.4247   57.8130 C.ar    1  ZINC000558213406   -0.1100
      7 C7        -11.4597   -3.6058   56.8043 C.ar    1  ZINC000558213406    0.0600
      8 O8        -12.2153   -4.1342   55.8052 O.3     1  ZINC000558213406   -0.2500
      9 C9        -12.0450   -3.6443   54.5491 C.ar    1  ZINC000558213406    0.0700
     10 C10       -10.7938   -3.6793   53.9416 C.ar    1  ZINC000558213406   -0.1500
     11 C11       -10.6697   -3.1678   52.6598 C.ar    1  ZINC000558213406   -0.1300
     12 C12       -11.7838   -2.6438   52.0315 C.ar    1  ZINC000558213406    0.0600
     13 N13       -12.9560   -2.6253   52.6356 N.ar    1  ZINC000558213406   -0.4500
     14 C14       -13.1179   -3.1072   53.8517 C.ar    1  ZINC000558213406    0.0800
     15 C15       -11.1760   -2.2477   56.8152 C.ar    1  ZINC000558213406   -0.1000
     16 C16       -10.4126   -1.7097   57.8322 C.ar    1  ZINC000558213406   -0.1100
     17 N17        -8.9883   -0.9167   61.9385 N.am    1  ZINC000558213406   -0.7300
     18 C18        -9.6358   -0.3248   63.1119 C.3     1  ZINC000558213406    0.1500
     19 H19       -10.5115   -0.9058   63.4014 H       1  ZINC000558213406    0.1100
     20 C20        -8.6358   -0.2137   64.2929 C.3     1  ZINC000558213406   -0.1400
     21 C21        -9.2325    0.9695   65.0954 C.3     1  ZINC000558213406    0.1000
     22 N22        -9.7398    1.9017   64.0720 N.am    1  ZINC000558213406   -0.6200
     23 C23        -9.9195    3.2272   64.2370 C.2     1  ZINC000558213406    0.5400
     24 O24        -9.6560    3.7471   65.3005 O.2     1  ZINC000558213406   -0.5300
     25 C25       -10.4478    4.0633   63.0999 C.3     1  ZINC000558213406   -0.1000
     26 C26       -11.9757    4.1072   63.1662 C.3     1  ZINC000558213406   -0.1100
     27 C27       -12.5120    4.9560   62.0117 C.3     1  ZINC000558213406   -0.1200
     28 C28       -11.9557    6.3770   62.1221 C.3     1  ZINC000558213406   -0.1200
     29 C29       -10.4278    6.3330   62.0558 C.3     1  ZINC000558213406   -0.1200
     30 C30        -9.8914    5.4842   63.2103 C.3     1  ZINC000558213406   -0.1100
     31 C31       -10.0208    1.1446   62.8399 C.3     1  ZINC000558213406    0.1000
     32 H32        -8.1739   -1.9997   59.8045 H       1  ZINC000558213406    0.4100
     33 H33        -9.8255   -4.5262   59.6124 H       1  ZINC000558213406    0.1300
     34 H34       -11.1942   -5.4818   57.8043 H       1  ZINC000558213406    0.1400
     35 H35        -9.9403   -4.0946   54.4567 H       1  ZINC000558213406    0.1400
     36 H36        -9.7136   -3.1782   52.1577 H       1  ZINC000558213406    0.1400
     37 H37       -11.6931   -2.2437   51.0324 H       1  ZINC000558213406    0.1600
     38 H38       -14.0934   -3.0748   54.3139 H       1  ZINC000558213406    0.1700
     39 H39       -11.5553   -1.6107   56.0297 H       1  ZINC000558213406    0.1400
     40 H40       -10.1922   -0.6524   57.8407 H       1  ZINC000558213406    0.1500
     41 H41        -8.0205   -0.9315   61.8744 H       1  ZINC000558213406    0.4000
     42 H42        -8.6313   -1.1267   64.8883 H       1  ZINC000558213406    0.0900
     43 H43        -7.6337    0.0228   63.9354 H       1  ZINC000558213406    0.0800
     44 H44       -10.0476    0.6239   65.7311 H       1  ZINC000558213406    0.0700
     45 H45        -8.4594    1.4491   65.6955 H       1  ZINC000558213406    0.0800
     46 H46       -10.1377    3.6243   62.1516 H       1  ZINC000558213406    0.0900
     47 H47       -12.3721    3.0948   63.0875 H       1  ZINC000558213406    0.0600
     48 H48       -12.2857    4.5461   64.1145 H       1  ZINC000558213406    0.0700
     49 H49       -12.2020    4.5170   61.0634 H       1  ZINC000558213406    0.0600
     50 H50       -13.6005    4.9873   62.0590 H       1  ZINC000558213406    0.0700
     51 H51       -12.3379    6.9816   61.2997 H       1  ZINC000558213406    0.0600
     52 H52       -12.2658    6.8159   63.0704 H       1  ZINC000558213406    0.0600
     53 H53       -10.1177    5.8941   61.1075 H       1  ZINC000558213406    0.0600
     54 H54       -10.0315    7.3454   62.1345 H       1  ZINC000558213406    0.0700
     55 H55       -10.2014    5.9232   64.1586 H       1  ZINC000558213406    0.0800
     56 H56        -8.8029    5.4529   63.1631 H       1  ZINC000558213406    0.0600
     57 H57        -9.4207    1.5368   62.0189 H       1  ZINC000558213406    0.0800
     58 H58       -11.0805    1.2160   62.5945 H       1  ZINC000558213406    0.0800
@<TRIPOS>BOND
     1     1     2    2
     2     2     3   am
     3     2    17   am
     4     3     4    1
     5     3    32    1
     6     4    16   ar
     7     4     5   ar
     8     5     6   ar
     9     5    33    1
    10     6     7   ar
    11     6    34    1
    12     7     8    1
    13     7    15   ar
    14     8     9    1
    15     9    14   ar
    16     9    10   ar
    17    10    11   ar
    18    10    35    1
    19    11    12   ar
    20    11    36    1
    21    12    13   ar
    22    12    37    1
    23    13    14   ar
    24    14    38    1
    25    15    16   ar
    26    15    39    1
    27    16    40    1
    28    17    18    1
    29    17    41    1
    30    18    19    1
    31    18    31    1
    32    18    20    1
    33    20    21    1
    34    20    42    1
    35    20    43    1
    36    21    22    1
    37    21    44    1
    38    21    45    1
    39    22    23   am
    40    22    31    1
    41    23    24    2
    42    23    25    1
    43    25    30    1
    44    25    26    1
    45    25    46    1
    46    26    27    1
    47    26    47    1
    48    26    48    1
    49    27    28    1
    50    27    49    1
    51    27    50    1
    52    28    29    1
    53    28    51    1
    54    28    52    1
    55    29    30    1
    56    29    53    1
    57    29    54    1
    58    30    55    1
    59    30    56    1
    60    31    57    1
    61    31    58    1
@<TRIPOS>SUBSTRUCTURE
     1 ZINC000558213406        1 TEMP              0 ****  ****    0 ROOT


##########                                Name:    ZINC000428748914
##########                DOCK_Rotatable_Bonds:                  11
##########                         Heavy_Atoms:                  30
##########                    Molecular_Weight:             413.492
##########                DOCK_Rotatable_Bonds:                  11
##########                       Formal_Charge:           0.0199993
##########                     HBond_Acceptors:                   7
##########                        HBond_Donors:                   3
##########                         Heavy_Atoms:                  30
##########                          Grid_Score:          -36.798916
##########                     Grid_vdw_energy:          -36.015858
##########                      Grid_es_energy:           -0.783060
##########           Internal_energy_repulsive:           32.827496

@<TRIPOS>MOLECULE
ZINC000428748914
 58 61 1 0 0
SMALL
USER_CHARGES


@<TRIPOS>ATOM
      1 O1        -12.4854   -3.1966   55.9376 O.2     1  ZINC000428748914   -0.5900
      2 C2        -11.2714   -3.2570   55.9691 C.2     1  ZINC000428748914    0.7000
      3 N3        -10.5862   -3.6263   54.8689 N.am    1  ZINC000428748914   -0.7400
      4 C4        -11.3045   -3.9608   53.6366 C.3     1  ZINC000428748914    0.1900
      5 C5        -11.7328   -2.6923   52.9447 C.ar    1  ZINC000428748914   -0.2000
      6 C6        -13.0400   -2.5408   52.5041 C.ar    1  ZINC000428748914   -0.0200
      7 C7        -13.3914   -1.3598   51.8734 C.ar    1  ZINC000428748914   -0.1900
      8 C8        -12.4298   -0.3723   51.7038 C.ar    1  ZINC000428748914    0.3300
      9 O9        -12.7617    0.7900   51.0876 O.3     1  ZINC000428748914   -0.3000
     10 C10       -14.0650    0.8672   50.5068 C.3     1  ZINC000428748914    0.0800
     11 C11       -14.2367    2.1992   49.7352 C.3     1  ZINC000428748914   -0.1400
     12 C12       -15.3609    1.8656   48.7233 C.3     1  ZINC000428748914   -0.1200
     13 C13       -15.0642    0.4141   48.2931 C.3     1  ZINC000428748914   -0.1200
     14 C14       -14.2402   -0.2207   49.4272 C.3     1  ZINC000428748914   -0.1200
     15 N15       -11.1934   -0.5539   52.1377 N.ar    1  ZINC000428748914   -0.5400
     16 C16       -10.8301   -1.6660   52.7475 C.ar    1  ZINC000428748914    0.1600
     17 N17       -10.6107   -2.9492   57.1028 N.am    1  ZINC000428748914   -0.7400
     18 C18       -11.3555   -2.5477   58.2988 C.3     1  ZINC000428748914    0.1800
     19 C19       -10.4214   -1.8039   59.2554 C.3     1  ZINC000428748914   -0.1300
     20 C20       -10.1072   -0.3550   58.8776 C.3     1  ZINC000428748914    0.1100
     21 O21        -9.2318   -0.3363   57.7482 O.3     1  ZINC000428748914   -0.5700
     22 C22        -9.3143   -2.6135   59.9337 C.3     1  ZINC000428748914   -0.1400
     23 C23       -10.5221   -2.1397   60.7446 C.3     1  ZINC000428748914   -0.1000
     24 H24       -11.2539   -2.8905   61.0430 H       1  ZINC000428748914    0.1200
     25 C25       -10.3036   -1.0184   61.7276 C.ar    1  ZINC000428748914   -0.0700
     26 C26       -11.2311    0.0017   61.8290 C.ar    1  ZINC000428748914   -0.0900
     27 C27       -11.0318    1.0304   62.7300 C.ar    1  ZINC000428748914   -0.1500
     28 C28        -9.9029    1.0388   63.5317 C.ar    1  ZINC000428748914    0.1000
     29 F29        -9.7073    2.0438   64.4132 F       1  ZINC000428748914   -0.1400
     30 C30        -8.9749    0.0164   63.4295 C.ar    1  ZINC000428748914   -0.1500
     31 C31        -9.1787   -1.0138   62.5311 C.ar    1  ZINC000428748914   -0.0800
     32 H32        -9.6175   -3.6706   54.8928 H       1  ZINC000428748914    0.4000
     33 H33       -10.6495   -4.5308   52.9776 H       1  ZINC000428748914    0.0800
     34 H34       -12.1840   -4.5571   53.8792 H       1  ZINC000428748914    0.0800
     35 H35       -13.7666   -3.3265   52.6496 H       1  ZINC000428748914    0.1400
     36 H36       -14.3998   -1.2084   51.5175 H       1  ZINC000428748914    0.1400
     37 H37       -14.8310    0.7681   51.2760 H       1  ZINC000428748914    0.1000
     38 H38       -14.5475    2.9982   50.4083 H       1  ZINC000428748914    0.0700
     39 H39       -13.3163    2.4663   49.2159 H       1  ZINC000428748914    0.0800
     40 H40       -16.3374    1.9293   49.2032 H       1  ZINC000428748914    0.0700
     41 H41       -15.3123    2.5354   47.8647 H       1  ZINC000428748914    0.0700
     42 H42       -15.9969   -0.1333   48.1578 H       1  ZINC000428748914    0.0700
     43 H43       -14.4900    0.4092   47.3666 H       1  ZINC000428748914    0.0700
     44 H44       -13.2663   -0.5337   49.0510 H       1  ZINC000428748914    0.0800
     45 H45       -14.7733   -1.0762   49.8421 H       1  ZINC000428748914    0.0700
     46 H46        -9.8117   -1.7789   53.0886 H       1  ZINC000428748914    0.1600
     47 H47        -9.6420   -2.9935   57.1268 H       1  ZINC000428748914    0.3900
     48 H48       -12.1781   -1.8929   58.0117 H       1  ZINC000428748914    0.0700
     49 H49       -11.7523   -3.4339   58.7941 H       1  ZINC000428748914    0.0900
     50 H50       -11.0326    0.1644   58.6287 H       1  ZINC000428748914    0.0500
     51 H51        -9.6258    0.1436   59.7188 H       1  ZINC000428748914    0.0600
     52 H52        -8.8771    0.5389   57.5401 H       1  ZINC000428748914    0.3800
     53 H53        -9.2516   -3.6760   59.6983 H       1  ZINC000428748914    0.1100
     54 H54        -8.3618   -2.1140   60.1107 H       1  ZINC000428748914    0.1100
     55 H55       -12.1116   -0.0051   61.2036 H       1  ZINC000428748914    0.1400
     56 H56       -11.7561    1.8276   62.8086 H       1  ZINC000428748914    0.1400
     57 H57        -8.0938    0.0221   64.0541 H       1  ZINC000428748914    0.1400
     58 H58        -8.4552   -1.8116   62.4516 H       1  ZINC000428748914    0.1300
@<TRIPOS>BOND
     1     1     2    2
     2     2     3   am
     3     2    17   am
     4     3     4    1
     5     3    32    1
     6     4     5    1
     7     4    33    1
     8     4    34    1
     9     5    16   ar
    10     5     6   ar
    11     6     7   ar
    12     6    35    1
    13     7     8   ar
    14     7    36    1
    15     8     9    1
    16     8    15   ar
    17     9    10    1
    18    10    14    1
    19    10    11    1
    20    10    37    1
    21    11    12    1
    22    11    38    1
    23    11    39    1
    24    12    13    1
    25    12    40    1
    26    12    41    1
    27    13    14    1
    28    13    42    1
    29    13    43    1
    30    14    44    1
    31    14    45    1
    32    15    16   ar
    33    16    46    1
    34    17    18    1
    35    17    47    1
    36    18    19    1
    37    18    48    1
    38    18    49    1
    39    19    23    1
    40    19    20    1
    41    19    22    1
    42    20    21    1
    43    20    50    1
    44    20    51    1
    45    21    52    1
    46    22    23    1
    47    22    53    1
    48    22    54    1
    49    23    24    1
    50    23    25    1
    51    25    31   ar
    52    25    26   ar
    53    26    27   ar
    54    26    55    1
    55    27    28   ar
    56    27    56    1
    57    28    29    1
    58    28    30   ar
    59    30    31   ar
    60    30    57    1
    61    31    58    1
@<TRIPOS>SUBSTRUCTURE
     1 ZINC000428748914        1 TEMP              0 ****  ****    0 ROOT


##########                                Name:    ZINC000502834785
##########                DOCK_Rotatable_Bonds:                   9
##########                         Heavy_Atoms:                  26
##########                    Molecular_Weight:             356.468
##########                DOCK_Rotatable_Bonds:                   9
##########                       Formal_Charge:           0.0199998
##########                     HBond_Acceptors:                   6
##########                        HBond_Donors:                   2
##########                         Heavy_Atoms:                  26
##########                          Grid_Score:          -36.795338
##########                     Grid_vdw_energy:          -35.672268
##########                      Grid_es_energy:           -1.123068
##########           Internal_energy_repulsive:           23.150103

@<TRIPOS>MOLECULE
ZINC000502834785
 54 56 1 0 0
SMALL
USER_CHARGES


@<TRIPOS>ATOM
      1 C1        -11.7033    1.4954   64.5316 C.3     1  ZINC000502834785   -0.1800
      2 C2        -10.4669    1.2794   63.6566 C.3     1  ZINC000502834785    0.0800
      3 C3         -9.2091    1.3485   64.5250 C.3     1  ZINC000502834785   -0.1500
      4 O4        -10.5442   -0.0032   63.0312 O.3     1  ZINC000502834785   -0.3800
      5 C5         -9.4072   -0.3281   62.2288 C.3     1  ZINC000502834785    0.1000
      6 C6         -9.8246   -1.2588   61.1196 C.ar    1  ZINC000502834785   -0.0800
      7 C7        -10.7781   -0.8574   60.2027 C.ar    1  ZINC000502834785   -0.1000
      8 C8        -11.1610   -1.7111   59.1851 C.ar    1  ZINC000502834785   -0.1000
      9 C9        -10.5900   -2.9660   59.0842 C.ar    1  ZINC000502834785   -0.1000
     10 C10       -11.0079   -3.8970   57.9751 C.3     1  ZINC000502834785    0.1600
     11 N11       -10.7466   -3.2626   56.6807 N.am    1  ZINC000502834785   -0.7300
     12 C12       -11.6493   -3.3659   55.6852 C.2     1  ZINC000502834785    0.5100
     13 O13       -12.6784   -3.9829   55.8615 O.2     1  ZINC000502834785   -0.5200
     14 C14       -11.3797   -2.7148   54.3531 C.3     1  ZINC000502834785    0.0300
     15 N15       -12.6106   -2.0835   53.8587 N.3     1  ZINC000502834785   -0.5000
     16 C16       -13.5148   -3.0859   53.2558 C.3     1  ZINC000502834785    0.0500
     17 C17       -14.2246   -2.3350   52.1017 C.3     1  ZINC000502834785   -0.1300
     18 C18       -13.0823   -1.4323   51.5659 C.3     1  ZINC000502834785   -0.1300
     19 C19       -12.3073   -1.0556   52.8461 C.3     1  ZINC000502834785    0.1500
     20 H20       -12.6316   -0.0776   53.2018 H       1  ZINC000502834785    0.1100
     21 C21       -10.8276   -1.0325   52.5615 C.2     1  ZINC000502834785    0.0600
     22 N22       -10.1741   -1.8955   51.8267 N.2     1  ZINC000502834785   -0.2900
     23 N23        -8.8237   -1.5234   51.8112 N.pl3   1  ZINC000502834785   -0.4800
     24 C24        -8.6913   -0.4092   52.5609 C.2     1  ZINC000502834785    0.0600
     25 C25        -9.9166   -0.0812   53.0322 C.2     1  ZINC000502834785   -0.2600
     26 C26        -9.6356   -3.3668   60.0002 C.ar    1  ZINC000502834785   -0.1000
     27 C27        -9.2499   -2.5117   61.0156 C.ar    1  ZINC000502834785   -0.1000
     28 H28       -12.5994    1.4462   63.9130 H       1  ZINC000502834785    0.0600
     29 H29       -11.7469    0.7203   65.2967 H       1  ZINC000502834785    0.0600
     30 H30       -11.6444    2.4738   65.0087 H       1  ZINC000502834785    0.0700
     31 H31       -10.4233    2.0546   62.8916 H       1  ZINC000502834785    0.0600
     32 H32        -9.2528    0.5733   65.2900 H       1  ZINC000502834785    0.0600
     33 H33        -8.3284    1.1946   63.9016 H       1  ZINC000502834785    0.0600
     34 H34        -9.1502    2.3268   65.0019 H       1  ZINC000502834785    0.0700
     35 H35        -8.9921    0.5843   61.8007 H       1  ZINC000502834785    0.0600
     36 H36        -8.6532   -0.8150   62.8473 H       1  ZINC000502834785    0.0600
     37 H37       -11.2242    0.1230   60.2815 H       1  ZINC000502834785    0.1300
     38 H38       -11.9065   -1.3979   58.4692 H       1  ZINC000502834785    0.1300
     39 H39       -10.4400   -4.8247   58.0462 H       1  ZINC000502834785    0.0800
     40 H40       -12.0721   -4.1145   58.0649 H       1  ZINC000502834785    0.0800
     41 H41        -9.9240   -2.7681   56.5401 H       1  ZINC000502834785    0.4000
     42 H42       -10.6043   -1.9575   54.4691 H       1  ZINC000502834785    0.1000
     43 H43       -11.0469   -3.4695   53.6406 H       1  ZINC000502834785    0.0800
     44 H44       -12.9423   -3.9273   52.8655 H       1  ZINC000502834785    0.0400
     45 H45       -14.2437   -3.4296   53.9897 H       1  ZINC000502834785    0.1000
     46 H46       -14.5652   -3.0304   51.3346 H       1  ZINC000502834785    0.0800
     47 H47       -15.0529   -1.7345   52.4777 H       1  ZINC000502834785    0.0800
     48 H48       -12.4438   -1.9863   50.8778 H       1  ZINC000502834785    0.0800
     49 H49       -13.4879   -0.5421   51.0850 H       1  ZINC000502834785    0.0800
     50 H50        -8.1098   -1.9849   51.3439 H       1  ZINC000502834785    0.4400
     51 H51        -7.7727    0.1271   52.7478 H       1  ZINC000502834785    0.1800
     52 H52       -10.1491    0.7625   53.6652 H       1  ZINC000502834785    0.1500
     53 H53        -9.1892   -4.3471   59.9212 H       1  ZINC000502834785    0.1300
     54 H54        -8.5042   -2.8248   61.7312 H       1  ZINC000502834785    0.1200
@<TRIPOS>BOND
     1     1     2    1
     2     1    28    1
     3     1    29    1
     4     1    30    1
     5     2     3    1
     6     2     4    1
     7     2    31    1
     8     3    32    1
     9     3    33    1
    10     3    34    1
    11     4     5    1
    12     5     6    1
    13     5    35    1
    14     5    36    1
    15     6    27   ar
    16     6     7   ar
    17     7     8   ar
    18     7    37    1
    19     8     9   ar
    20     8    38    1
    21     9    10    1
    22     9    26   ar
    23    10    11    1
    24    10    39    1
    25    10    40    1
    26    11    12   am
    27    11    41    1
    28    12    13    2
    29    12    14    1
    30    14    15    1
    31    14    42    1
    32    14    43    1
    33    15    19    1
    34    15    16    1
    35    16    17    1
    36    16    44    1
    37    16    45    1
    38    17    18    1
    39    17    46    1
    40    17    47    1
    41    18    19    1
    42    18    48    1
    43    18    49    1
    44    19    20    1
    45    19    21    1
    46    21    25    1
    47    21    22    2
    48    22    23    1
    49    23    24    1
    50    23    50    1
    51    24    25    2
    52    24    51    1
    53    25    52    1
    54    26    27   ar
    55    26    53    1
    56    27    54    1
@<TRIPOS>SUBSTRUCTURE
     1 ZINC000502834785        1 TEMP              0 ****  ****    0 ROOT


##########                                Name:    ZINC000532153088
##########                DOCK_Rotatable_Bonds:                  11
##########                         Heavy_Atoms:                  29
##########                    Molecular_Weight:             402.484
##########                DOCK_Rotatable_Bonds:                  11
##########                       Formal_Charge:          -0.0200009
##########                     HBond_Acceptors:                   6
##########                        HBond_Donors:                   1
##########                         Heavy_Atoms:                  29
##########                          Grid_Score:          -36.776070
##########                     Grid_vdw_energy:          -36.375877
##########                      Grid_es_energy:           -0.400191
##########           Internal_energy_repulsive:           23.077288

@<TRIPOS>MOLECULE
ZINC000532153088
 57 59 1 0 0
SMALL
USER_CHARGES


@<TRIPOS>ATOM
      1 C1        -10.9102   -3.2100   53.6090 C.3     1  ZINC000532153088   -0.1800
      2 C2        -10.8529   -2.8475   52.1236 C.3     1  ZINC000532153088    0.0800
      3 C3        -12.1225   -2.0873   51.7349 C.3     1  ZINC000532153088   -0.1500
      4 O4         -9.7108   -2.0247   51.8778 O.3     1  ZINC000532153088   -0.3800
      5 C5         -9.7875   -0.7297   52.4773 C.3     1  ZINC000532153088    0.1000
      6 C6         -8.5122    0.0259   52.2055 C.ar    1  ZINC000532153088   -0.0700
      7 C7         -7.5895   -0.4762   51.3073 C.ar    1  ZINC000532153088   -0.1000
      8 C8         -6.4195    0.2171   51.0581 C.ar    1  ZINC000532153088   -0.1100
      9 C9         -6.1729    1.4124   51.7065 C.ar    1  ZINC000532153088   -0.1200
     10 C10        -7.0964    1.9152   52.6043 C.ar    1  ZINC000532153088   -0.1000
     11 C11        -8.2679    1.2243   52.8503 C.ar    1  ZINC000532153088   -0.1100
     12 C12        -9.2746    1.7722   53.8289 C.3     1  ZINC000532153088    0.1600
     13 N13        -8.7676    1.6095   55.1937 N.am    1  ZINC000532153088   -0.7300
     14 C14        -9.5974    1.7666   56.2440 C.2     1  ZINC000532153088    0.5100
     15 O15       -10.7634    2.0441   56.0594 O.2     1  ZINC000532153088   -0.5000
     16 C16        -9.0762    1.5974   57.6479 C.3     1  ZINC000532153088    0.0300
     17 N17        -9.7558    0.4639   58.2892 N.3     1  ZINC000532153088   -0.4800
     18 C18        -8.9034   -0.7324   58.2841 C.3     1  ZINC000532153088    0.1000
     19 C19        -9.7601   -1.9589   58.1039 C.ar    1  ZINC000532153088   -0.1300
     20 C20       -10.7260   -1.9876   57.1160 C.ar    1  ZINC000532153088   -0.0600
     21 C21       -11.5123   -3.1122   56.9492 C.ar    1  ZINC000532153088   -0.1700
     22 C22       -11.3329   -4.2112   57.7719 C.ar    1  ZINC000532153088    0.1300
     23 F23       -12.1013   -5.3104   57.6083 F       1  ZINC000532153088   -0.1300
     24 C24       -10.3656   -4.1836   58.7618 C.ar    1  ZINC000532153088   -0.2000
     25 C25        -9.5753   -3.0592   58.9245 C.ar    1  ZINC000532153088    0.1600
     26 F26        -8.6310   -3.0308   59.8901 F       1  ZINC000532153088   -0.1100
     27 C27       -10.1751    0.8058   59.6550 C.3     1  ZINC000532153088    0.0200
     28 C28       -11.2545    1.8782   59.8151 C.3     1  ZINC000532153088   -0.2200
     29 C29       -11.5905    0.4092   60.0797 C.3     1  ZINC000532153088   -0.1700
     30 H30       -11.7813   -3.8377   53.7965 H       1  ZINC000532153088    0.0700
     31 H31       -10.0057   -3.7516   53.8859 H       1  ZINC000532153088    0.0600
     32 H32       -10.9842   -2.2989   54.2027 H       1  ZINC000532153088    0.0700
     33 H33       -10.7789   -3.7587   51.5298 H       1  ZINC000532153088    0.0600
     34 H34       -12.1965   -1.1761   52.3286 H       1  ZINC000532153088    0.0600
     35 H35       -12.0816   -1.8291   50.6767 H       1  ZINC000532153088    0.0600
     36 H36       -12.9936   -2.7149   51.9224 H       1  ZINC000532153088    0.0700
     37 H37       -10.6307   -0.1832   52.0552 H       1  ZINC000532153088    0.0600
     38 H38        -9.9249   -0.8352   53.5535 H       1  ZINC000532153088    0.0600
     39 H39        -7.7821   -1.4103   50.8006 H       1  ZINC000532153088    0.1300
     40 H40        -5.6981   -0.1756   50.3567 H       1  ZINC000532153088    0.1200
     41 H41        -5.2588    1.9537   51.5122 H       1  ZINC000532153088    0.1300
     42 H42        -6.9036    2.8491   53.1113 H       1  ZINC000532153088    0.1300
     43 H43        -9.4393    2.8305   53.6263 H       1  ZINC000532153088    0.0800
     44 H44       -10.2151    1.2314   53.7239 H       1  ZINC000532153088    0.0800
     45 H45        -7.8346    1.3887   55.3414 H       1  ZINC000532153088    0.4000
     46 H46        -8.0033    1.4073   57.6168 H       1  ZINC000532153088    0.0700
     47 H47        -9.2678    2.5061   58.2186 H       1  ZINC000532153088    0.1100
     48 H48        -8.1880   -0.6653   57.4644 H       1  ZINC000532153088    0.0900
     49 H49        -8.3665   -0.8000   59.2303 H       1  ZINC000532153088    0.0500
     50 H50       -10.8670   -1.1307   56.4741 H       1  ZINC000532153088    0.1400
     51 H51       -12.2672   -3.1335   56.1771 H       1  ZINC000532153088    0.1400
     52 H52       -10.2249   -5.0405   59.4041 H       1  ZINC000532153088    0.1500
     53 H53        -9.3919    0.7626   60.4118 H       1  ZINC000532153088    0.1200
     54 H54       -11.1815    2.5410   60.6774 H       1  ZINC000532153088    0.1000
     55 H55       -11.6536    2.3301   58.9070 H       1  ZINC000532153088    0.1000
     56 H56       -12.2106   -0.1054   59.3456 H       1  ZINC000532153088    0.1000
     57 H57       -11.7385    0.1055   61.1160 H       1  ZINC000532153088    0.1000
@<TRIPOS>BOND
     1     1     2    1
     2     1    30    1
     3     1    31    1
     4     1    32    1
     5     2     3    1
     6     2     4    1
     7     2    33    1
     8     3    34    1
     9     3    35    1
    10     3    36    1
    11     4     5    1
    12     5     6    1
    13     5    37    1
    14     5    38    1
    15     6    11   ar
    16     6     7   ar
    17     7     8   ar
    18     7    39    1
    19     8     9   ar
    20     8    40    1
    21     9    10   ar
    22     9    41    1
    23    10    11   ar
    24    10    42    1
    25    11    12    1
    26    12    13    1
    27    12    43    1
    28    12    44    1
    29    13    14   am
    30    13    45    1
    31    14    15    2
    32    14    16    1
    33    16    17    1
    34    16    46    1
    35    16    47    1
    36    17    18    1
    37    17    27    1
    38    18    19    1
    39    18    48    1
    40    18    49    1
    41    19    25   ar
    42    19    20   ar
    43    20    21   ar
    44    20    50    1
    45    21    22   ar
    46    21    51    1
    47    22    23    1
    48    22    24   ar
    49    24    25   ar
    50    24    52    1
    51    25    26    1
    52    27    29    1
    53    27    28    1
    54    27    53    1
    55    28    29    1
    56    28    54    1
    57    28    55    1
    58    29    56    1
    59    29    57    1
@<TRIPOS>SUBSTRUCTURE
     1 ZINC000532153088        1 TEMP              0 ****  ****    0 ROOT


##########                                Name:    ZINC000788423111
##########                DOCK_Rotatable_Bonds:                   7
##########                         Heavy_Atoms:                  23
##########                    Molecular_Weight:             399.243
##########                DOCK_Rotatable_Bonds:                   7
##########                       Formal_Charge:         1.04308e-07
##########                     HBond_Acceptors:                   8
##########                        HBond_Donors:                   1
##########                         Heavy_Atoms:                  23
##########                          Grid_Score:          -36.737560
##########                     Grid_vdw_energy:          -35.366829
##########                      Grid_es_energy:           -1.370730
##########           Internal_energy_repulsive:            3.782418

@<TRIPOS>MOLECULE
ZINC000788423111
 35 37 1 0 0
SMALL
USER_CHARGES


@<TRIPOS>ATOM
      1 O1          0.2005    2.2529   46.8602 O.3     1  ZINC000788423111   -0.5400
      2 C2         -1.2152    2.0918   46.7507 C.3     1  ZINC000788423111    0.1000
      3 H3         -1.5617    2.5446   45.8217 H       1  ZINC000788423111    0.1300
      4 C4         -1.8994    2.7742   47.9368 C.3     1  ZINC000788423111    0.0300
      5 O5         -1.7641    1.9556   49.1003 O.3     1  ZINC000788423111   -0.2900
      6 C6         -2.7167    2.0862   50.0607 C.ar    1  ZINC000788423111    0.1700
      7 C7         -2.4780    2.8810   51.1717 C.ar    1  ZINC000788423111   -0.2400
      8 C8         -3.4494    3.0125   52.1486 C.ar    1  ZINC000788423111    0.1500
      9 F9         -3.2180    3.7866   53.2314 F       1  ZINC000788423111   -0.1300
     10 C10        -4.6587    2.3513   52.0162 C.ar    1  ZINC000788423111   -0.1600
     11 C11        -4.8974    1.5579   50.9083 C.ar    1  ZINC000788423111   -0.0300
     12 Br12       -6.5500    0.6562   50.7304 Br      1  ZINC000788423111   -0.0200
     13 C13        -3.9315    1.4289   49.9280 C.ar    1  ZINC000788423111   -0.1300
     14 C14        -1.5604    0.6012   46.7513 C.3     1  ZINC000788423111    0.1000
     15 N15        -1.3695    0.0552   45.4055 N.pl3   1  ZINC000788423111   -0.1300
     16 N16        -2.0695   -0.8881   44.8789 N.2     1  ZINC000788423111   -0.0500
     17 N17        -1.6330   -1.1197   43.6874 N.2     1  ZINC000788423111   -0.2600
     18 C18        -0.6121   -0.2771   43.4667 C.2     1  ZINC000788423111    0.2400
     19 C19         0.2003   -0.1762   42.2347 C.2     1  ZINC000788423111   -0.1300
     20 C20        -0.1188   -0.7232   41.0455 C.2     1  ZINC000788423111   -0.0800
     21 C21         0.7978   -0.4928   40.0401 C.2     1  ZINC000788423111   -0.1400
     22 C22         1.8591    0.2355   40.3978 C.2     1  ZINC000788423111   -0.2000
     23 S23         1.7287    0.6828   42.0936 S.3     1  ZINC000788423111    0.1700
     24 N24        -0.4782    0.4478   44.5615 N.2     1  ZINC000788423111   -0.2900
     25 H25         0.6928    1.9401   46.0889 H       1  ZINC000788423111    0.3800
     26 H26        -1.4326    3.7425   48.1177 H       1  ZINC000788423111    0.0900
     27 H27        -2.9567    2.9167   47.7137 H       1  ZINC000788423111    0.0800
     28 H28        -1.5346    3.3967   51.2748 H       1  ZINC000788423111    0.1500
     29 H29        -5.4164    2.4549   52.7788 H       1  ZINC000788423111    0.1500
     30 H30        -4.1187    0.8096   49.0633 H       1  ZINC000788423111    0.1500
     31 H31        -0.9094    0.0778   47.4515 H       1  ZINC000788423111    0.1300
     32 H32        -2.5995    0.4691   47.0532 H       1  ZINC000788423111    0.1300
     33 H33        -1.0205   -1.2971   40.8914 H       1  ZINC000788423111    0.1500
     34 H34         0.6670   -0.8736   39.0379 H       1  ZINC000788423111    0.1500
     35 H35         2.6724    0.5118   39.7431 H       1  ZINC000788423111    0.1700
@<TRIPOS>BOND
     1     1     2    1
     2     1    25    1
     3     2     3    1
     4     2     4    1
     5     2    14    1
     6     4     5    1
     7     4    26    1
     8     4    27    1
     9     5     6    1
    10     6    13   ar
    11     6     7   ar
    12     7     8   ar
    13     7    28    1
    14     8     9    1
    15     8    10   ar
    16    10    11   ar
    17    10    29    1
    18    11    12    1
    19    11    13   ar
    20    13    30    1
    21    14    15    1
    22    14    31    1
    23    14    32    1
    24    15    24    1
    25    15    16    1
    26    16    17    2
    27    17    18    1
    28    18    19    1
    29    18    24    2
    30    19    23    1
    31    19    20    2
    32    20    21    1
    33    20    33    1
    34    21    22    2
    35    21    34    1
    36    22    23    1
    37    22    35    1
@<TRIPOS>SUBSTRUCTURE
     1 ZINC000788423111        1 TEMP              0 ****  ****    0 ROOT


##########                                Name:     oleObject15.pdb
##########                DOCK_Rotatable_Bonds:                   9
##########                         Heavy_Atoms:                  29
##########                    Molecular_Weight:             395.545
##########                DOCK_Rotatable_Bonds:                   9
##########                       Formal_Charge:         0.000700183
##########                     HBond_Acceptors:                   5
##########                        HBond_Donors:                   1
##########                         Heavy_Atoms:                  29
##########                          Grid_Score:          -36.734943
##########                     Grid_vdw_energy:          -36.473316
##########                      Grid_es_energy:           -0.261626
##########           Internal_energy_repulsive:           13.601923

@<TRIPOS>MOLECULE
oleObject15.pdb
 62 64 1 0 0
SMALL
NO_CHARGES


@<TRIPOS>ATOM
      1 O         -11.5437   -2.3052   54.7427 O.3     1  UNL        -0.3745
      2 C         -11.3413   -3.6877   55.1132 C.3     1  UNL         0.0600
      3 C         -11.5560   -3.8257   56.6383 C.3     1  UNL         0.0217
      4 N         -10.5050   -3.1919   57.4684 N.4     1  UNL        -0.3010
      5 C         -10.6516   -1.7284   57.6405 C.3     1  UNL        -0.0010
      6 C          -9.4551   -1.1169   58.4016 C.3     1  UNL        -0.0289
      7 C          -9.1862   -1.8129   59.7575 C.3     1  UNL         0.0382
      8 C          -9.1249   -3.3491   59.5632 C.3     1  UNL        -0.0289
      9 C         -10.3101   -3.9122   58.7445 C.3     1  UNL        -0.0010
     10 C         -10.2217   -1.3953   60.8311 C.2     1  UNL         0.2156
     11 O         -11.3262   -1.9042   60.8931 O.2     1  UNL        -0.2774
     12 N          -9.8812   -0.4469   61.7870 N.am    1  UNL        -0.3025
     13 C         -10.7245    0.0740   62.8793 C.3     1  UNL         0.0900
     14 C          -9.9145    0.7345   63.9934 C.ar    1  UNL        -0.0217
     15 C         -10.4436    1.8044   64.7434 C.ar    1  UNL        -0.0568
     16 C          -9.6805    2.4084   65.7559 C.ar    1  UNL        -0.0619
     17 C          -8.3838    1.9461   66.0295 C.ar    1  UNL        -0.0622
     18 C          -7.8521    0.8772   65.2912 C.ar    1  UNL        -0.0619
     19 C          -8.6154    0.2732   64.2789 C.ar    1  UNL        -0.0568
     20 C         -11.7997    1.0231   62.3582 C.ar    1  UNL         0.0652
     21 C         -11.5393    1.9388   61.3177 C.ar    1  UNL        -0.0383
     22 C         -12.5677    2.7924   60.8876 C.ar    1  UNL        -0.0588
     23 C         -13.8206    2.7020   61.5135 C.ar    1  UNL        -0.0438
     24 C         -13.9939    1.7622   62.5439 C.ar    1  UNL         0.0272
     25 N         -13.0074    0.9417   62.9584 N.ar    1  UNL        -0.2590
     26 C         -11.8390   -1.9696   53.3661 C.3     1  UNL         0.0599
     27 C         -10.9183   -2.7844   52.4233 C.3     1  UNL        -0.0364
     28 C         -13.3117   -2.3899   53.1588 C.3     1  UNL        -0.0364
     29 C         -11.6836   -0.4441   53.1459 C.3     1  UNL        -0.0364
     30 H         -10.3189   -4.0021   54.8714 H       1  UNL         0.0581
     31 H         -12.0350   -4.3497   54.5835 H       1  UNL         0.0581
     32 H         -11.6009   -4.8972   56.8715 H       1  UNL         0.0455
     33 H         -12.5326   -3.3954   56.8940 H       1  UNL         0.0455
     34 H         -11.5798   -1.5095   58.1839 H       1  UNL         0.0431
     35 H         -10.7110   -1.2318   56.6650 H       1  UNL         0.0431
     36 H          -9.6231   -0.0440   58.5503 H       1  UNL         0.0288
     37 H          -8.5602   -1.2091   57.7725 H       1  UNL         0.0288
     38 H          -8.1884   -1.5114   60.0870 H       1  UNL         0.0402
     39 H          -9.0733   -3.8501   60.5382 H       1  UNL         0.0288
     40 H          -8.1957   -3.5977   59.0343 H       1  UNL         0.0288
     41 H         -11.2273   -3.8541   59.3436 H       1  UNL         0.0431
     42 H         -10.1185   -4.9743   58.5443 H       1  UNL         0.0431
     43 H          -8.9134   -0.1511   61.7820 H       1  UNL         0.1504
     44 H         -11.2530   -0.7871   63.3077 H       1  UNL         0.0624
     45 H         -11.4427    2.1767   64.5367 H       1  UNL         0.0626
     46 H         -10.0936    3.2355   66.3262 H       1  UNL         0.0623
     47 H          -7.7933    2.4136   66.8123 H       1  UNL         0.0623
     48 H          -6.8496    0.5165   65.5034 H       1  UNL         0.0623
     49 H          -8.1951   -0.5543   63.7141 H       1  UNL         0.0626
     50 H         -10.5599    1.9886   60.8517 H       1  UNL         0.0643
     51 H         -12.3969    3.5077   60.0882 H       1  UNL         0.0624
     52 H         -14.6404    3.3456   61.2085 H       1  UNL         0.0639
     53 H         -14.9515    1.6634   63.0538 H       1  UNL         0.0840
     54 H         -10.9415   -3.8509   52.6816 H       1  UNL         0.0260
     55 H          -9.8783   -2.4407   52.4779 H       1  UNL         0.0260
     56 H         -11.2434   -2.6819   51.3804 H       1  UNL         0.0260
     57 H         -13.4413   -3.4639   53.3447 H       1  UNL         0.0260
     58 H         -13.6409   -2.1811   52.1330 H       1  UNL         0.0260
     59 H         -13.9736   -1.8458   53.8447 H       1  UNL         0.0260
     60 H         -10.6335   -0.1333   53.2099 H       1  UNL         0.0260
     61 H         -12.2550    0.1189   53.8950 H       1  UNL         0.0260
     62 H         -12.0522   -0.1563   52.1532 H       1  UNL         0.0260
@<TRIPOS>BOND
     1     1     2    1
     2     1    26    1
     3     2     3    1
     4     2    30    1
     5     2    31    1
     6     3     4    1
     7     3    32    1
     8     3    33    1
     9     4     5    1
    10     4     9    1
    11     5     6    1
    12     5    34    1
    13     5    35    1
    14     6     7    1
    15     6    36    1
    16     6    37    1
    17     7     8    1
    18     7    10    1
    19     7    38    1
    20     8     9    1
    21     8    39    1
    22     8    40    1
    23     9    41    1
    24     9    42    1
    25    10    11    2
    26    10    12   am
    27    12    13    1
    28    12    43    1
    29    13    14    1
    30    13    20    1
    31    13    44    1
    32    14    15   ar
    33    14    19   ar
    34    15    16   ar
    35    15    45    1
    36    16    17   ar
    37    16    46    1
    38    17    18   ar
    39    17    47    1
    40    18    19   ar
    41    18    48    1
    42    19    49    1
    43    20    21   ar
    44    20    25   ar
    45    21    22   ar
    46    21    50    1
    47    22    23   ar
    48    22    51    1
    49    23    24   ar
    50    23    52    1
    51    24    25   ar
    52    24    53    1
    53    26    27    1
    54    26    28    1
    55    26    29    1
    56    27    54    1
    57    27    55    1
    58    27    56    1
    59    28    57    1
    60    28    58    1
    61    28    59    1
    62    29    60    1
    63    29    61    1
    64    29    62    1
@<TRIPOS>SUBSTRUCTURE
     1 UNL         1 TEMP              0 ****  ****    0 ROOT


##########                                Name:    ZINC000171059239
##########                DOCK_Rotatable_Bonds:                   8
##########                         Heavy_Atoms:                  25
##########                    Molecular_Weight:              333.39
##########                DOCK_Rotatable_Bonds:                   8
##########                       Formal_Charge:         1.10269e-06
##########                     HBond_Acceptors:                   5
##########                        HBond_Donors:                   4
##########                         Heavy_Atoms:                  25
##########                          Grid_Score:          -36.709385
##########                     Grid_vdw_energy:          -34.417866
##########                      Grid_es_energy:           -2.291519
##########           Internal_energy_repulsive:            7.766504

@<TRIPOS>MOLECULE
ZINC000171059239
 44 46 1 0 0
SMALL
USER_CHARGES


@<TRIPOS>ATOM
      1 N1          1.8283   -0.5869   39.9611 N.am    1  ZINC000171059239   -0.8500
      2 C2          0.6232   -0.5279   40.5616 C.2     1  ZINC000171059239    0.5600
      3 O3         -0.3883   -0.7150   39.9141 O.2     1  ZINC000171059239   -0.5400
      4 C4          0.5316   -0.2354   42.0080 C.ar    1  ZINC000171059239   -0.1400
      5 C5          1.6674    0.1591   42.7166 C.ar    1  ZINC000171059239   -0.0900
      6 C6          1.5749    0.4310   44.0661 C.ar    1  ZINC000171059239   -0.1200
      7 C7          0.3599    0.3127   44.7170 C.ar    1  ZINC000171059239   -0.0800
      8 C8         -0.7700   -0.0785   44.0204 C.ar    1  ZINC000171059239   -0.0900
      9 C9         -2.0892   -0.2051   44.7377 C.3     1  ZINC000171059239   -0.0900
     10 C10        -2.3178    1.0329   45.6072 C.3     1  ZINC000171059239    0.1400
     11 N11        -2.3010    0.6471   47.0204 N.am    1  ZINC000171059239   -0.7400
     12 C12        -2.5985    1.5554   47.9705 C.2     1  ZINC000171059239    0.7000
     13 O13        -2.8822    2.6948   47.6547 O.2     1  ZINC000171059239   -0.5700
     14 N14        -2.5815    1.2009   49.2707 N.am    1  ZINC000171059239   -0.6800
     15 C15        -2.8897    2.1420   50.2550 C.ar    1  ZINC000171059239    0.1700
     16 C16        -4.1706    2.1599   50.8466 C.ar    1  ZINC000171059239   -0.0600
     17 C17        -5.1614    1.2413   50.4661 C.ar    1  ZINC000171059239   -0.1100
     18 C18        -6.3865    1.2875   51.0584 C.ar    1  ZINC000171059239   -0.1100
     19 C19        -6.6734    2.2351   52.0390 C.ar    1  ZINC000171059239   -0.1200
     20 C20        -5.7373    3.1412   52.4327 C.ar    1  ZINC000171059239   -0.1000
     21 C21        -4.4610    3.1236   51.8437 C.ar    1  ZINC000171059239   -0.0400
     22 C22        -3.4700    4.0434   52.2260 C.ar    1  ZINC000171059239   -0.1200
     23 C23        -2.2421    4.0030   51.6388 C.ar    1  ZINC000171059239   -0.0900
     24 C24        -1.9437    3.0581   50.6617 C.ar    1  ZINC000171059239   -0.1200
     25 C25        -0.6925   -0.3472   42.6696 C.ar    1  ZINC000171059239   -0.0500
     26 H26         1.8885   -0.7800   39.0124 H       1  ZINC000171059239    0.4100
     27 H27         2.6352   -0.4325   40.4768 H       1  ZINC000171059239    0.4000
     28 H28         2.6166    0.2510   42.2097 H       1  ZINC000171059239    0.1300
     29 H29         2.4531    0.7364   44.6157 H       1  ZINC000171059239    0.1300
     30 H30         0.2930    0.5264   45.7735 H       1  ZINC000171059239    0.1300
     31 H31        -2.8935   -0.2896   44.0069 H       1  ZINC000171059239    0.0800
     32 H32        -2.0761   -1.0943   45.3680 H       1  ZINC000171059239    0.0800
     33 H33        -1.5274    1.7597   45.4196 H       1  ZINC000171059239    0.0700
     34 H34        -3.2836    1.4751   45.3627 H       1  ZINC000171059239    0.0700
     35 H35        -2.0759   -0.2623   47.2723 H       1  ZINC000171059239    0.4000
     36 H36        -2.3552    0.2920   49.5226 H       1  ZINC000171059239    0.4100
     37 H37        -4.9532    0.5019   49.7070 H       1  ZINC000171059239    0.1200
     38 H38        -7.1470    0.5795   50.7638 H       1  ZINC000171059239    0.1200
     39 H39        -7.6532    2.2511   52.4928 H       1  ZINC000171059239    0.1200
     40 H40        -5.9739    3.8703   53.1936 H       1  ZINC000171059239    0.1300
     41 H41        -3.6821    4.7821   52.9847 H       1  ZINC000171059239    0.1300
     42 H42        -1.4864    4.7138   51.9387 H       1  ZINC000171059239    0.1300
     43 H43        -0.9620    3.0472   50.2117 H       1  ZINC000171059239    0.1400
     44 H44        -1.5751   -0.6522   42.1271 H       1  ZINC000171059239    0.1400
@<TRIPOS>BOND
     1     1     2   am
     2     1    26    1
     3     1    27    1
     4     2     3    2
     5     2     4    1
     6     4    25   ar
     7     4     5   ar
     8     5     6   ar
     9     5    28    1
    10     6     7   ar
    11     6    29    1
    12     7     8   ar
    13     7    30    1
    14     8     9    1
    15     8    25   ar
    16     9    10    1
    17     9    31    1
    18     9    32    1
    19    10    11    1
    20    10    33    1
    21    10    34    1
    22    11    12   am
    23    11    35    1
    24    12    13    2
    25    12    14   am
    26    14    15    1
    27    14    36    1
    28    15    24   ar
    29    15    16   ar
    30    16    21   ar
    31    16    17   ar
    32    17    18   ar
    33    17    37    1
    34    18    19   ar
    35    18    38    1
    36    19    20   ar
    37    19    39    1
    38    20    21   ar
    39    20    40    1
    40    21    22   ar
    41    22    23   ar
    42    22    41    1
    43    23    24   ar
    44    23    42    1
    45    24    43    1
    46    25    44    1
@<TRIPOS>SUBSTRUCTURE
     1 ZINC000171059239        1 TEMP              0 ****  ****    0 ROOT


##########                                Name:    ZINC001326371752
##########                DOCK_Rotatable_Bonds:                   5
##########                         Heavy_Atoms:                  25
##########                    Molecular_Weight:             360.397
##########                DOCK_Rotatable_Bonds:                   5
##########                       Formal_Charge:           0.0199999
##########                     HBond_Acceptors:                  10
##########                        HBond_Donors:                   0
##########                         Heavy_Atoms:                  25
##########                          Grid_Score:          -36.699753
##########                     Grid_vdw_energy:          -34.623665
##########                      Grid_es_energy:           -2.076087
##########           Internal_energy_repulsive:           11.193513

@<TRIPOS>MOLECULE
ZINC001326371752
 41 44 1 0 0
SMALL
USER_CHARGES


@<TRIPOS>ATOM
      1 C1        -14.2305    0.3443   48.1360 C.3     1  ZINC001326371752    0.0300
      2 O2        -15.0112   -0.6693   48.7727 O.3     1  ZINC001326371752   -0.3800
      3 C3        -14.2499   -1.5643   49.5860 C.3     1  ZINC001326371752    0.0500
      4 C4        -13.5716   -0.7797   50.7108 C.3     1  ZINC001326371752    0.1200
      5 N5        -12.8193   -1.7021   51.5647 N.pl3   1  ZINC001326371752   -0.2800
      6 N6        -11.5921   -2.0645   51.3935 N.2     1  ZINC001326371752   -0.0800
      7 N7        -11.2353   -2.8869   52.3215 N.2     1  ZINC001326371752   -0.2500
      8 C8        -12.2655   -3.0767   53.1380 C.2     1  ZINC001326371752   -0.0400
      9 C9        -13.2844   -2.3154   52.6678 C.2     1  ZINC001326371752    0.0000
     10 C10       -14.6466   -2.2218   53.3006 C.3     1  ZINC001326371752   -0.0600
     11 C11       -14.8357   -3.4173   54.2439 C.3     1  ZINC001326371752    0.1200
     12 N12       -13.6196   -3.5940   55.0512 N.am    1  ZINC001326371752   -0.6100
     13 C13       -13.6506   -3.4346   56.3891 C.2     1  ZINC001326371752    0.6100
     14 O14       -14.6937   -3.1407   56.9428 O.2     1  ZINC001326371752   -0.5100
     15 C15       -12.4266   -3.6152   57.1782 C.2     1  ZINC001326371752   -0.3400
     16 C16       -11.8809   -4.8904   57.3653 C.2     1  ZINC001326371752    0.2400
     17 N17       -10.7792   -5.0154   58.0807 N.2     1  ZINC001326371752   -0.5100
     18 C18       -10.1753   -3.9683   58.6269 C.2     1  ZINC001326371752    0.2900
     19 S19        -8.7494   -3.8727   59.5883 S.3     1  ZINC001326371752    0.2500
     20 C20        -8.8192   -2.1144   59.7846 C.2     1  ZINC001326371752   -0.2100
     21 C21        -9.8963   -1.7289   59.1214 C.2     1  ZINC001326371752    0.0500
     22 N22       -10.6400   -2.6984   58.4930 N.am    1  ZINC001326371752   -0.4600
     23 C23       -11.7745   -2.5050   57.7580 C.2     1  ZINC001326371752    0.5500
     24 O24       -12.2237   -1.3821   57.6072 O.2     1  ZINC001326371752   -0.5000
     25 C25       -12.3635   -3.9468   54.3653 C.3     1  ZINC001326371752    0.2000
     26 H26       -14.8813    0.9819   47.5379 H       1  ZINC001326371752    0.0900
     27 H27       -13.7287    0.9460   48.8938 H       1  ZINC001326371752    0.0500
     28 H28       -13.4860   -0.1222   47.4909 H       1  ZINC001326371752    0.0500
     29 H29       -14.9113   -2.3168   50.0155 H       1  ZINC001326371752    0.0600
     30 H30       -13.4909   -2.0536   48.9755 H       1  ZINC001326371752    0.0600
     31 H31       -12.8908   -0.0446   50.2817 H       1  ZINC001326371752    0.1200
     32 H32       -14.3290   -0.2696   51.3059 H       1  ZINC001326371752    0.1200
     33 H33       -14.7235   -1.2936   53.8670 H       1  ZINC001326371752    0.0900
     34 H34       -15.4121   -2.2436   52.5250 H       1  ZINC001326371752    0.1000
     35 H35       -15.6852   -3.2317   54.9011 H       1  ZINC001326371752    0.1100
     36 H36       -15.0178   -4.3181   53.6578 H       1  ZINC001326371752    0.0800
     37 H37       -12.3543   -5.7586   56.9310 H       1  ZINC001326371752    0.1900
     38 H38        -8.1285   -1.4891   60.3308 H       1  ZINC001326371752    0.2200
     39 H39       -10.1815   -0.6884   59.0753 H       1  ZINC001326371752    0.2000
     40 H40       -12.3839   -4.9957   54.0697 H       1  ZINC001326371752    0.1000
     41 H41       -11.5158   -3.7624   55.0251 H       1  ZINC001326371752    0.1000
@<TRIPOS>BOND
     1     1     2    1
     2     1    26    1
     3     1    27    1
     4     1    28    1
     5     2     3    1
     6     3     4    1
     7     3    29    1
     8     3    30    1
     9     4     5    1
    10     4    31    1
    11     4    32    1
    12     5     9    1
    13     5     6    1
    14     6     7    2
    15     7     8    1
    16     8    25    1
    17     8     9    2
    18     9    10    1
    19    10    11    1
    20    10    33    1
    21    10    34    1
    22    11    12    1
    23    11    35    1
    24    11    36    1
    25    12    13   am
    26    12    25    1
    27    13    14    2
    28    13    15    1
    29    15    23    1
    30    15    16    2
    31    16    17    1
    32    16    37    1
    33    17    18    2
    34    18    22    1
    35    18    19    1
    36    19    20    1
    37    20    21    2
    38    20    38    1
    39    21    22    1
    40    21    39    1
    41    22    23   am
    42    23    24    2
    43    25    40    1
    44    25    41    1
@<TRIPOS>SUBSTRUCTURE
     1 ZINC001326371752        1 TEMP              0 ****  ****    0 ROOT


##########                                Name:    ZINC000508571532
##########                DOCK_Rotatable_Bonds:                   9
##########                         Heavy_Atoms:                  30
##########                    Molecular_Weight:             422.407
##########                DOCK_Rotatable_Bonds:                   9
##########                       Formal_Charge:           0.0100001
##########                     HBond_Acceptors:                  10
##########                        HBond_Donors:                   0
##########                         Heavy_Atoms:                  30
##########                          Grid_Score:          -36.609123
##########                     Grid_vdw_energy:          -35.062626
##########                      Grid_es_energy:           -1.546496
##########           Internal_energy_repulsive:           15.815234

@<TRIPOS>MOLECULE
ZINC000508571532
 51 53 1 0 0
SMALL
USER_CHARGES


@<TRIPOS>ATOM
      1 C1        -10.6898    2.4382   63.0597 C.3     1  ZINC000508571532    0.0300
      2 O2        -11.6424    1.5246   62.5123 O.3     1  ZINC000508571532   -0.3200
      3 C3        -11.1742    0.3145   62.1053 C.ar    1  ZINC000508571532    0.0900
      4 C4         -9.8255    0.0157   62.2285 C.ar    1  ZINC000508571532   -0.1700
      5 C5         -9.3498   -1.2135   61.8151 C.ar    1  ZINC000508571532   -0.1100
      6 C6        -10.2211   -2.1490   61.2773 C.ar    1  ZINC000508571532    0.0900
      7 O7         -9.7527   -3.3589   60.8699 O.3     1  ZINC000508571532   -0.3100
      8 C8         -9.0395   -3.3951   59.6320 C.3     1  ZINC000508571532    0.1500
      9 C9         -9.9919   -3.7297   58.5131 C.2     1  ZINC000508571532    0.1700
     10 N10       -10.4230   -4.9175   58.1951 N.2     1  ZINC000508571532   -0.2500
     11 N11       -11.2222   -4.8420   57.1913 N.2     1  ZINC000508571532   -0.3000
     12 C12       -11.3450   -3.5919   56.8121 C.2     1  ZINC000508571532    0.3500
     13 N13       -12.1212   -3.1210   55.7650 N.3     1  ZINC000508571532   -0.4600
     14 C14       -11.3715   -3.1446   54.5019 C.3     1  ZINC000508571532    0.0300
     15 C15       -13.3701   -3.8858   55.6502 C.3     1  ZINC000508571532    0.1100
     16 C16       -14.2965   -3.5072   56.7770 C.ar    1  ZINC000508571532   -0.0900
     17 C17       -14.5207   -4.3913   57.8142 C.ar    1  ZINC000508571532   -0.0600
     18 C18       -15.3710   -4.0446   58.8482 C.ar    1  ZINC000508571532   -0.1300
     19 C19       -15.9981   -2.8127   58.8470 C.ar    1  ZINC000508571532   -0.0700
     20 C20       -15.7768   -1.9245   57.8120 C.ar    1  ZINC000508571532   -0.1900
     21 C21       -14.9203   -2.2677   56.7763 C.ar    1  ZINC000508571532    0.1100
     22 O22       -14.7009   -1.3959   55.7572 O.3     1  ZINC000508571532   -0.3100
     23 C23       -15.6731   -1.3637   54.7104 C.3     1  ZINC000508571532    0.6000
     24 F24       -15.0459   -1.0457   53.5009 F       1  ZINC000508571532   -0.1600
     25 F25       -16.2845   -2.6174   54.6031 F       1  ZINC000508571532   -0.1300
     26 F26       -16.6407   -0.3964   55.0023 F       1  ZINC000508571532   -0.1600
     27 N27       -10.5686   -2.8423   57.6471 N.pl3   1  ZINC000508571532   -0.4500
     28 C28       -10.3834   -1.3894   57.6161 C.3     1  ZINC000508571532    0.0800
     29 C29       -11.5701   -1.8508   61.1553 C.ar    1  ZINC000508571532   -0.1700
     30 C30       -12.0464   -0.6230   61.5722 C.ar    1  ZINC000508571532   -0.1100
     31 H31       -11.1938    3.3621   63.3434 H       1  ZINC000508571532    0.1000
     32 H32       -10.2238    1.9937   63.9391 H       1  ZINC000508571532    0.0600
     33 H33        -9.9250    2.6558   62.3141 H       1  ZINC000508571532    0.0600
     34 H34        -9.1471    0.7442   62.6473 H       1  ZINC000508571532    0.1400
     35 H35        -8.2994   -1.4459   61.9104 H       1  ZINC000508571532    0.1300
     36 H36        -8.5868   -2.4215   59.4449 H       1  ZINC000508571532    0.0800
     37 H37        -8.2594   -4.1545   59.6844 H       1  ZINC000508571532    0.1000
     38 H38       -11.1933   -4.1780   54.2044 H       1  ZINC000508571532    0.0600
     39 H39       -11.9477   -2.6378   53.7279 H       1  ZINC000508571532    0.0800
     40 H40       -10.4171   -2.6356   54.6363 H       1  ZINC000508571532    0.0700
     41 H41       -13.8474   -3.6610   54.6964 H       1  ZINC000508571532    0.0700
     42 H42       -13.1496   -4.9519   55.7038 H       1  ZINC000508571532    0.0900
     43 H43       -14.0319   -5.3544   57.8174 H       1  ZINC000508571532    0.1400
     44 H44       -15.5456   -4.7377   59.6578 H       1  ZINC000508571532    0.1300
     45 H45       -16.6620   -2.5444   59.6555 H       1  ZINC000508571532    0.1400
     46 H46       -16.2672   -0.9623   57.8114 H       1  ZINC000508571532    0.1400
     47 H47       -11.0738   -0.9201   58.3169 H       1  ZINC000508571532    0.0900
     48 H48        -9.3587   -1.1476   57.8985 H       1  ZINC000508571532    0.0900
     49 H49       -10.5799   -1.0195   56.6098 H       1  ZINC000508571532    0.1000
     50 H50       -12.2486   -2.5794   60.7367 H       1  ZINC000508571532    0.1400
     51 H51       -13.0968   -0.3907   61.4772 H       1  ZINC000508571532    0.1400
@<TRIPOS>BOND
     1     1     2    1
     2     1    31    1
     3     1    32    1
     4     1    33    1
     5     2     3    1
     6     3    30   ar
     7     3     4   ar
     8     4     5   ar
     9     4    34    1
    10     5     6   ar
    11     5    35    1
    12     6     7    1
    13     6    29   ar
    14     7     8    1
    15     8     9    1
    16     8    36    1
    17     8    37    1
    18     9    27    1
    19     9    10    2
    20    10    11    1
    21    11    12    2
    22    12    13    1
    23    12    27    1
    24    13    14    1
    25    13    15    1
    26    14    38    1
    27    14    39    1
    28    14    40    1
    29    15    16    1
    30    15    41    1
    31    15    42    1
    32    16    21   ar
    33    16    17   ar
    34    17    18   ar
    35    17    43    1
    36    18    19   ar
    37    18    44    1
    38    19    20   ar
    39    19    45    1
    40    20    21   ar
    41    20    46    1
    42    21    22    1
    43    22    23    1
    44    23    24    1
    45    23    25    1
    46    23    26    1
    47    27    28    1
    48    28    47    1
    49    28    48    1
    50    28    49    1
    51    29    30   ar
    52    29    50    1
    53    30    51    1
@<TRIPOS>SUBSTRUCTURE
     1 ZINC000508571532        1 TEMP              0 ****  ****    0 ROOT


##########                                Name:    ZINC001289445798
##########                DOCK_Rotatable_Bonds:                  10
##########                         Heavy_Atoms:                  25
##########                    Molecular_Weight:             352.434
##########                DOCK_Rotatable_Bonds:                  10
##########                       Formal_Charge:          0.00999932
##########                     HBond_Acceptors:                   8
##########                        HBond_Donors:                   2
##########                         Heavy_Atoms:                  25
##########                          Grid_Score:          -36.583889
##########                     Grid_vdw_energy:          -36.153072
##########                      Grid_es_energy:           -0.430818
##########           Internal_energy_repulsive:           19.031136

@<TRIPOS>MOLECULE
ZINC001289445798
 53 54 1 0 0
SMALL
USER_CHARGES


@<TRIPOS>ATOM
      1 C1        -14.7724   -0.7692   51.2029 C.3     1  ZINC001289445798   -0.1500
      2 C2        -13.3038   -1.1978   51.2031 C.3     1  ZINC001289445798    0.0600
      3 O3        -12.8850   -1.4628   52.5435 O.3     1  ZINC001289445798   -0.3700
      4 C4        -11.5078   -1.8251   52.6613 C.3     1  ZINC001289445798    0.1100
      5 H5        -11.0299   -1.7593   51.6839 H       1  ZINC001289445798    0.0700
      6 C6        -11.4007   -3.2585   53.1858 C.3     1  ZINC001289445798   -0.1400
      7 C7        -12.7203   -3.6749   53.7828 C.2     1  ZINC001289445798    0.5400
      8 O8        -13.6885   -3.8258   53.0681 O.2     1  ZINC001289445798   -0.5200
      9 N9        -12.8246   -3.8795   55.1108 N.am    1  ZINC001289445798   -0.6200
     10 C10       -11.7382   -3.7258   56.0894 C.3     1  ZINC001289445798    0.1000
     11 C11       -12.3279   -4.0366   57.4812 C.3     1  ZINC001289445798    0.1400
     12 H12       -12.1352   -5.0727   57.7591 H       1  ZINC001289445798    0.1200
     13 N13       -11.7864   -3.1221   58.4895 N.am    1  ZINC001289445798   -0.7200
     14 C14       -10.6242   -3.4121   59.1073 C.2     1  ZINC001289445798    0.6000
     15 O15       -10.0257   -4.4337   58.8289 O.2     1  ZINC001289445798   -0.5100
     16 C16       -10.0792   -2.4926   60.1190 C.2     1  ZINC001289445798   -0.0500
     17 C17        -8.9199   -2.6610   60.8561 C.2     1  ZINC001289445798   -0.1400
     18 C18        -8.8331   -1.5310   61.6723 C.2     1  ZINC001289445798    0.0000
     19 N19        -9.8687   -0.7722   61.4189 N.2     1  ZINC001289445798   -0.2700
     20 N20       -10.6131   -1.2990   60.5144 N.pl3   1  ZINC001289445798   -0.3800
     21 C21       -13.8471   -3.7967   57.2764 C.3     1  ZINC001289445798    0.0700
     22 H22       -14.0908   -2.7380   57.3644 H       1  ZINC001289445798    0.0900
     23 O23       -14.6169   -4.5747   58.1952 O.3     1  ZINC001289445798   -0.3700
     24 C24       -14.9555   -3.8846   59.3998 C.3     1  ZINC001289445798    0.0300
     25 C25       -14.0486   -4.2882   55.8236 C.3     1  ZINC001289445798    0.0800
     26 C26       -10.8112   -0.8725   53.6349 C.3     1  ZINC001289445798   -0.1100
     27 C27        -9.4979   -0.3850   53.0197 C.3     1  ZINC001289445798   -0.1500
     28 C28       -11.7199    0.3265   53.9134 C.3     1  ZINC001289445798   -0.1500
     29 H29       -14.8878    0.1324   51.8044 H       1  ZINC001289445798    0.0600
     30 H30       -15.0918   -0.5672   50.1805 H       1  ZINC001289445798    0.0700
     31 H31       -15.3839   -1.5674   51.6235 H       1  ZINC001289445798    0.0600
     32 H32       -13.1882   -2.0995   50.6016 H       1  ZINC001289445798    0.0500
     33 H33       -12.6922   -0.3996   50.7824 H       1  ZINC001289445798    0.0500
     34 H34       -11.1463   -3.9280   52.3641 H       1  ZINC001289445798    0.1100
     35 H35       -10.6245   -3.3090   53.9494 H       1  ZINC001289445798    0.1000
     36 H36       -10.9337   -4.4255   55.8630 H       1  ZINC001289445798    0.0800
     37 H37       -11.3606   -2.7036   56.0665 H       1  ZINC001289445798    0.0800
     38 H38       -12.2642   -2.3080   58.7125 H       1  ZINC001289445798    0.4000
     39 H39        -8.2293   -3.4901   60.8098 H       1  ZINC001289445798    0.1700
     40 H40        -8.0504   -1.3210   62.3862 H       1  ZINC001289445798    0.1900
     41 H41       -11.4328   -0.9118   60.1696 H       1  ZINC001289445798    0.4400
     42 H42       -15.5393   -4.5426   60.0436 H       1  ZINC001289445798    0.0900
     43 H43       -14.0432   -3.5866   59.9165 H       1  ZINC001289445798    0.0400
     44 H44       -15.5425   -2.9985   59.1583 H       1  ZINC001289445798    0.0500
     45 H45       -14.9253   -3.8151   55.3813 H       1  ZINC001289445798    0.0900
     46 H46       -14.1501   -5.3733   55.8009 H       1  ZINC001289445798    0.0900
     47 H47       -10.6031   -1.3952   54.5686 H       1  ZINC001289445798    0.0800
     48 H48        -9.7060    0.1378   52.0861 H       1  ZINC001289445798    0.0600
     49 H49        -9.0016    0.2938   53.7134 H       1  ZINC001289445798    0.0600
     50 H50        -8.8504   -1.2391   52.8214 H       1  ZINC001289445798    0.0600
     51 H51       -12.6131   -0.0092   54.4402 H       1  ZINC001289445798    0.0600
     52 H52       -11.1866    1.0517   54.5280 H       1  ZINC001289445798    0.0600
     53 H53       -12.0076    0.7913   52.9704 H       1  ZINC001289445798    0.0500
@<TRIPOS>BOND
     1     1     2    1
     2     1    29    1
     3     1    30    1
     4     1    31    1
     5     2     3    1
     6     2    32    1
     7     2    33    1
     8     3     4    1
     9     4     5    1
    10     4     6    1
    11     4    26    1
    12     6     7    1
    13     6    34    1
    14     6    35    1
    15     7     8    2
    16     7     9   am
    17     9    25    1
    18     9    10    1
    19    10    11    1
    20    10    36    1
    21    10    37    1
    22    11    12    1
    23    11    13    1
    24    11    21    1
    25    13    14   am
    26    13    38    1
    27    14    15    2
    28    14    16    1
    29    16    20    1
    30    16    17    2
    31    17    18    1
    32    17    39    1
    33    18    19    2
    34    18    40    1
    35    19    20    1
    36    20    41    1
    37    21    22    1
    38    21    23    1
    39    21    25    1
    40    23    24    1
    41    24    42    1
    42    24    43    1
    43    24    44    1
    44    25    45    1
    45    25    46    1
    46    26    27    1
    47    26    28    1
    48    26    47    1
    49    27    48    1
    50    27    49    1
    51    27    50    1
    52    28    51    1
    53    28    52    1
    54    28    53    1
@<TRIPOS>SUBSTRUCTURE
     1 ZINC001289445798        1 TEMP              0 ****  ****    0 ROOT


##########                                Name:    ZINC000465392830
##########                DOCK_Rotatable_Bonds:                   8
##########                         Heavy_Atoms:                  29
##########                    Molecular_Weight:             419.588
##########                DOCK_Rotatable_Bonds:                   8
##########                       Formal_Charge:           0.0199996
##########                     HBond_Acceptors:                   7
##########                        HBond_Donors:                   0
##########                         Heavy_Atoms:                  29
##########                          Grid_Score:          -36.537178
##########                     Grid_vdw_energy:          -35.315083
##########                      Grid_es_energy:           -1.222097
##########           Internal_energy_repulsive:           29.560102

@<TRIPOS>MOLECULE
ZINC000465392830
 62 64 1 0 0
SMALL
USER_CHARGES


@<TRIPOS>ATOM
      1 C1         -8.4441    0.8355   53.1530 C.3     1  ZINC000465392830    0.0400
      2 O2         -9.8801    0.7345   53.3430 O.3     1  ZINC000465392830   -0.3600
      3 C3        -10.5227   -0.2116   52.6403 C.2     1  ZINC000465392830    0.4600
      4 O4         -9.9057   -0.9321   51.8920 O.2     1  ZINC000465392830   -0.4900
      5 C5        -12.0139   -0.3750   52.7847 C.3     1  ZINC000465392830    0.1500
      6 H6        -12.3225   -0.0879   53.7899 H       1  ZINC000465392830    0.1100
      7 C7        -12.7412    0.5002   51.7424 C.3     1  ZINC000465392830   -0.1100
      8 C8        -13.9312   -0.3951   51.3065 C.3     1  ZINC000465392830   -0.0900
      9 H9        -14.7588   -0.3152   52.0113 H       1  ZINC000465392830    0.1000
     10 C10       -14.3875   -0.0485   49.8878 C.3     1  ZINC000465392830   -0.0800
     11 C11       -15.5594   -0.9499   49.4945 C.3     1  ZINC000465392830   -0.1200
     12 C12       -16.0157   -0.6034   48.0759 C.3     1  ZINC000465392830   -0.1200
     13 C13       -16.4590    0.8602   48.0260 C.3     1  ZINC000465392830   -0.1200
     14 C14       -15.2870    1.7617   48.4194 C.3     1  ZINC000465392830   -0.1200
     15 C15       -14.8307    1.4150   49.8380 C.3     1  ZINC000465392830   -0.1200
     16 C16       -13.2936   -1.8059   51.3564 C.3     1  ZINC000465392830    0.1000
     17 N17       -12.3911   -1.7723   52.5258 N.am    1  ZINC000465392830   -0.6100
     18 C18       -11.9811   -2.8439   53.2328 C.2     1  ZINC000465392830    0.5400
     19 O19       -12.3594   -3.9543   52.9251 O.2     1  ZINC000465392830   -0.5300
     20 C20       -11.0523   -2.6623   54.4056 C.3     1  ZINC000465392830   -0.1300
     21 C21       -11.8594   -2.2389   55.6345 C.3     1  ZINC000465392830   -0.0600
     22 C22       -11.0749   -2.5512   56.8828 C.ar    1  ZINC000465392830   -0.2000
     23 C23       -10.2174   -1.6116   57.4337 C.ar    1  ZINC000465392830    0.2000
     24 C24       -10.0556   -0.2578   56.7918 C.3     1  ZINC000465392830   -0.1100
     25 N25        -9.5434   -1.9174   58.5298 N.ar    1  ZINC000465392830   -0.5000
     26 C26        -9.6809   -3.1060   59.1002 C.ar    1  ZINC000465392830    0.3000
     27 S27        -8.7637   -3.4712   60.5596 S.3     1  ZINC000465392830    0.0000
     28 C28        -9.0959   -1.9750   61.5224 C.3     1  ZINC000465392830   -0.1400
     29 N29       -10.4928   -4.0262   58.5989 N.ar    1  ZINC000465392830   -0.5300
     30 C30       -11.1994   -3.7822   57.5079 C.ar    1  ZINC000465392830    0.2000
     31 C31       -12.1200   -4.8339   56.9444 C.3     1  ZINC000465392830   -0.1100
     32 H32        -7.9735   -0.1072   53.4323 H       1  ZINC000465392830    0.0600
     33 H33        -8.2304    1.0522   52.1063 H       1  ZINC000465392830    0.0600
     34 H34        -8.0505    1.6373   53.7778 H       1  ZINC000465392830    0.1000
     35 H35       -13.0997    1.4237   52.1970 H       1  ZINC000465392830    0.1000
     36 H36       -12.0890    0.7138   50.8956 H       1  ZINC000465392830    0.0800
     37 H37       -13.5618   -0.2018   49.1930 H       1  ZINC000465392830    0.0800
     38 H38       -15.2436   -1.9926   49.5300 H       1  ZINC000465392830    0.0600
     39 H39       -16.3850   -0.7966   50.1894 H       1  ZINC000465392830    0.0700
     40 H40       -15.1900   -0.7568   47.3809 H       1  ZINC000465392830    0.0600
     41 H41       -16.8506   -1.2456   47.7956 H       1  ZINC000465392830    0.0600
     42 H42       -16.7840    1.1071   47.0153 H       1  ZINC000465392830    0.0600
     43 H43       -17.2846    1.0136   48.7209 H       1  ZINC000465392830    0.0600
     44 H44       -14.4614    1.6083   47.7245 H       1  ZINC000465392830    0.0600
     45 H45       -15.6028    2.8044   48.3839 H       1  ZINC000465392830    0.0600
     46 H46       -15.6564    1.5686   50.5329 H       1  ZINC000465392830    0.0700
     47 H47       -13.9958    2.0574   50.1183 H       1  ZINC000465392830    0.0600
     48 H48       -14.0631   -2.5654   51.4947 H       1  ZINC000465392830    0.0900
     49 H49       -12.7280   -1.9991   50.4448 H       1  ZINC000465392830    0.0800
     50 H50       -10.5409   -3.6024   54.6130 H       1  ZINC000465392830    0.1000
     51 H51       -10.3169   -1.8927   54.1710 H       1  ZINC000465392830    0.1000
     52 H52       -12.0571   -1.1680   55.5881 H       1  ZINC000465392830    0.0900
     53 H53       -12.8041   -2.7823   55.6536 H       1  ZINC000465392830    0.0900
     54 H54       -10.7860    0.4333   57.2124 H       1  ZINC000465392830    0.0900
     55 H55        -9.0497    0.1166   56.9819 H       1  ZINC000465392830    0.0900
     56 H56       -10.2140   -0.3441   55.7169 H       1  ZINC000465392830    0.0900
     57 H57        -8.7324   -1.1039   60.9771 H       1  ZINC000465392830    0.0900
     58 H58       -10.1692   -1.8792   61.6861 H       1  ZINC000465392830    0.0900
     59 H59        -8.5861   -2.0408   62.4835 H       1  ZINC000465392830    0.1100
     60 H60       -13.1101   -4.7250   57.3872 H       1  ZINC000465392830    0.0900
     61 H61       -12.1902   -4.7138   55.8634 H       1  ZINC000465392830    0.0900
     62 H62       -11.7256   -5.8234   57.1752 H       1  ZINC000465392830    0.0800
@<TRIPOS>BOND
     1     1     2    1
     2     1    32    1
     3     1    33    1
     4     1    34    1
     5     2     3    1
     6     3     4    2
     7     3     5    1
     8     5     6    1
     9     5    17    1
    10     5     7    1
    11     7     8    1
    12     7    35    1
    13     7    36    1
    14     8     9    1
    15     8    10    1
    16     8    16    1
    17    10    15    1
    18    10    11    1
    19    10    37    1
    20    11    12    1
    21    11    38    1
    22    11    39    1
    23    12    13    1
    24    12    40    1
    25    12    41    1
    26    13    14    1
    27    13    42    1
    28    13    43    1
    29    14    15    1
    30    14    44    1
    31    14    45    1
    32    15    46    1
    33    15    47    1
    34    16    17    1
    35    16    48    1
    36    16    49    1
    37    17    18   am
    38    18    19    2
    39    18    20    1
    40    20    21    1
    41    20    50    1
    42    20    51    1
    43    21    22    1
    44    21    52    1
    45    21    53    1
    46    22    30   ar
    47    22    23   ar
    48    23    24    1
    49    23    25   ar
    50    24    54    1
    51    24    55    1
    52    24    56    1
    53    25    26   ar
    54    26    27    1
    55    26    29   ar
    56    27    28    1
    57    28    57    1
    58    28    58    1
    59    28    59    1
    60    29    30   ar
    61    30    31    1
    62    31    60    1
    63    31    61    1
    64    31    62    1
@<TRIPOS>SUBSTRUCTURE
     1 ZINC000465392830        1 TEMP              0 ****  ****    0 ROOT


##########                                Name:    ZINC000600609084
##########                DOCK_Rotatable_Bonds:                   8
##########                         Heavy_Atoms:                  30
##########                    Molecular_Weight:             422.548
##########                DOCK_Rotatable_Bonds:                   8
##########                       Formal_Charge:           0.0100005
##########                     HBond_Acceptors:                   6
##########                        HBond_Donors:                   2
##########                         Heavy_Atoms:                  30
##########                          Grid_Score:          -36.531338
##########                     Grid_vdw_energy:          -36.263691
##########                      Grid_es_energy:           -0.267648
##########           Internal_energy_repulsive:           19.460529

@<TRIPOS>MOLECULE
ZINC000600609084
 56 59 1 0 0
SMALL
USER_CHARGES


@<TRIPOS>ATOM
      1 O1        -11.0664   -2.3138   51.8767 O.2     1  ZINC000600609084   -0.5300
      2 C2        -11.1464   -2.1861   53.0801 C.2     1  ZINC000600609084    0.5200
      3 C3        -11.3126   -3.4002   53.9572 C.3     1  ZINC000600609084   -0.1500
      4 C4        -12.7178   -3.4041   54.5621 C.3     1  ZINC000600609084    0.1300
      5 N5        -13.0090   -4.7301   55.1125 N.am    1  ZINC000600609084   -1.1200
      6 S6        -13.8465   -4.8710   56.5342 S.o2    1  ZINC000600609084    2.7000
      7 O7        -15.0435   -4.1229   56.3706 O.2     1  ZINC000600609084   -0.9600
      8 O8        -13.8326   -6.2510   56.8730 O.2     1  ZINC000600609084   -0.9500
      9 C9        -12.9089   -4.0445   57.7760 C.ar    1  ZINC000600609084   -0.6700
     10 C10       -13.5047   -3.0330   58.5265 C.ar    1  ZINC000600609084   -0.0400
     11 C11       -12.8085   -2.3746   59.4933 C.ar    1  ZINC000600609084   -0.1200
     12 C12       -11.4687   -2.7178   59.7410 C.ar    1  ZINC000600609084   -0.0100
     13 C13       -10.7179   -2.0612   60.7311 C.ar    1  ZINC000600609084   -0.1200
     14 C14        -9.4227   -2.4207   60.9432 C.ar    1  ZINC000600609084   -0.0900
     15 C15        -8.8265   -3.4325   60.1924 C.ar    1  ZINC000600609084   -0.1200
     16 C16        -9.5224   -4.0903   59.2254 C.ar    1  ZINC000600609084   -0.0900
     17 C17       -10.8625   -3.7469   58.9775 C.ar    1  ZINC000600609084   -0.0800
     18 C18       -11.6148   -4.4076   57.9918 C.ar    1  ZINC000600609084    0.0200
     19 N19       -11.0811   -0.9588   53.6334 N.am    1  ZINC000600609084   -0.7200
     20 C20       -10.9196    0.2213   52.7806 C.3     1  ZINC000600609084    0.1400
     21 H21       -10.1054    0.0623   52.0737 H       1  ZINC000600609084    0.1000
     22 C22       -12.2278    0.5068   52.0224 C.3     1  ZINC000600609084   -0.1300
     23 C23       -12.6901    1.9134   52.4552 C.3     1  ZINC000600609084   -0.1300
     24 C24       -12.0210    2.1251   53.8359 C.3     1  ZINC000600609084   -0.1200
     25 C25       -10.6314    1.4643   53.6477 C.3     1  ZINC000600609084   -0.0700
     26 H26        -9.9534    2.1427   53.1297 H       1  ZINC000600609084    0.0900
     27 C27       -10.0548    1.0600   54.9801 C.ar    1  ZINC000600609084   -0.0600
     28 C28       -10.8579    0.4466   55.9232 C.ar    1  ZINC000600609084   -0.1100
     29 C29       -10.3291    0.0758   57.1454 C.ar    1  ZINC000600609084   -0.1200
     30 C30        -8.9969    0.3181   57.4242 C.ar    1  ZINC000600609084   -0.1200
     31 C31        -8.1937    0.9308   56.4806 C.ar    1  ZINC000600609084   -0.1200
     32 C32        -8.7215    1.2976   55.2569 C.ar    1  ZINC000600609084   -0.1100
     33 H33       -11.1712   -4.3015   53.3607 H       1  ZINC000600609084    0.1000
     34 H34       -10.5727   -3.3744   54.7573 H       1  ZINC000600609084    0.1000
     35 H35       -12.7733   -2.6605   55.3571 H       1  ZINC000600609084    0.0900
     36 H36       -13.4471   -3.1637   53.7884 H       1  ZINC000600609084    0.0800
     37 H37       -12.7112   -5.5258   54.6442 H       1  ZINC000600609084    0.4200
     38 H38       -14.5343   -2.7669   58.3379 H       1  ZINC000600609084    0.1400
     39 H39       -13.2834   -1.5923   60.0669 H       1  ZINC000600609084    0.1400
     40 H40       -11.1665   -1.2749   61.3203 H       1  ZINC000600609084    0.1300
     41 H41        -8.8479   -1.9142   61.7043 H       1  ZINC000600609084    0.1300
     42 H42        -7.7968   -3.6982   60.3807 H       1  ZINC000600609084    0.1300
     43 H43        -9.0473   -4.8720   58.6513 H       1  ZINC000600609084    0.1300
     44 H44       -11.1674   -5.1968   57.4057 H       1  ZINC000600609084    0.1500
     45 H45       -11.1409   -0.8571   54.5961 H       1  ZINC000600609084    0.4000
     46 H46       -12.0482    0.4870   50.9475 H       1  ZINC000600609084    0.0800
     47 H47       -12.9828   -0.2330   52.2888 H       1  ZINC000600609084    0.0700
     48 H48       -12.3444    2.6641   51.7446 H       1  ZINC000600609084    0.0700
     49 H49       -13.7757    1.9463   52.5483 H       1  ZINC000600609084    0.0700
     50 H50       -11.9166    3.1876   54.0558 H       1  ZINC000600609084    0.0700
     51 H51       -12.5856    1.6209   54.6201 H       1  ZINC000600609084    0.0700
     52 H52       -11.8986    0.2573   55.7054 H       1  ZINC000600609084    0.1200
     53 H53       -10.9567   -0.4027   57.8825 H       1  ZINC000600609084    0.1200
     54 H54        -8.5840    0.0292   58.3794 H       1  ZINC000600609084    0.1200
     55 H55        -7.1530    1.1204   56.6987 H       1  ZINC000600609084    0.1200
     56 H56        -8.0938    1.7763   54.5197 H       1  ZINC000600609084    0.1200
@<TRIPOS>BOND
     1     1     2    2
     2     2     3    1
     3     2    19   am
     4     3     4    1
     5     3    33    1
     6     3    34    1
     7     4     5    1
     8     4    35    1
     9     4    36    1
    10     5     6   am
    11     5    37    1
    12     6     7    2
    13     6     8    2
    14     6     9    1
    15     9    18   ar
    16     9    10   ar
    17    10    11   ar
    18    10    38    1
    19    11    12   ar
    20    11    39    1
    21    12    17   ar
    22    12    13   ar
    23    13    14   ar
    24    13    40    1
    25    14    15   ar
    26    14    41    1
    27    15    16   ar
    28    15    42    1
    29    16    17   ar
    30    16    43    1
    31    17    18   ar
    32    18    44    1
    33    19    20    1
    34    19    45    1
    35    20    21    1
    36    20    25    1
    37    20    22    1
    38    22    23    1
    39    22    46    1
    40    22    47    1
    41    23    24    1
    42    23    48    1
    43    23    49    1
    44    24    25    1
    45    24    50    1
    46    24    51    1
    47    25    26    1
    48    25    27    1
    49    27    32   ar
    50    27    28   ar
    51    28    29   ar
    52    28    52    1
    53    29    30   ar
    54    29    53    1
    55    30    31   ar
    56    30    54    1
    57    31    32   ar
    58    31    55    1
    59    32    56    1
@<TRIPOS>SUBSTRUCTURE
     1 ZINC000600609084        1 TEMP              0 ****  ****    0 ROOT


##########                                Name:    ZINC000590699876
##########                DOCK_Rotatable_Bonds:                   9
##########                         Heavy_Atoms:                  30
##########                    Molecular_Weight:              421.54
##########                DOCK_Rotatable_Bonds:                   9
##########                       Formal_Charge:          -0.0300004
##########                     HBond_Acceptors:                   9
##########                        HBond_Donors:                   1
##########                         Heavy_Atoms:                  30
##########                          Grid_Score:          -36.525288
##########                     Grid_vdw_energy:          -37.243195
##########                      Grid_es_energy:            0.717907
##########           Internal_energy_repulsive:          106.117462

@<TRIPOS>MOLECULE
ZINC000590699876
 65 67 1 0 0
SMALL
USER_CHARGES


@<TRIPOS>ATOM
      1 C1         -5.1760    1.3802   65.4531 C.3     1  ZINC000590699876   -0.1700
      2 C2         -6.6568    1.6591   65.4711 C.2     1  ZINC000590699876    0.5100
      3 O3         -7.0720    2.7012   65.9319 O.2     1  ZINC000590699876   -0.5500
      4 N4         -7.5197    0.7504   64.9750 N.am    1  ZINC000590699876   -0.7200
      5 C5         -8.9595    1.0208   64.9941 C.3     1  ZINC000590699876    0.1100
      6 C6         -9.6197    0.3088   63.8416 C.2     1  ZINC000590699876    0.5300
      7 O7         -9.1122   -0.6887   63.3743 O.2     1  ZINC000590699876   -0.5200
      8 N8        -10.7738    0.7806   63.3302 N.am    1  ZINC000590699876   -0.6000
      9 C9        -11.4960    1.9772   63.7995 C.3     1  ZINC000590699876    0.1000
     10 C10       -12.3337    2.4383   62.5807 C.3     1  ZINC000590699876   -0.1300
     11 C11       -12.7550    1.0799   61.9606 C.3     1  ZINC000590699876   -0.1300
     12 C12       -11.5180    0.1910   62.2076 C.3     1  ZINC000590699876    0.1200
     13 H13       -11.8336   -0.8192   62.4685 H       1  ZINC000590699876    0.1000
     14 C14       -10.6572    0.1555   60.9712 C.2     1  ZINC000590699876    0.5100
     15 O15        -9.6283    0.7964   60.9300 O.2     1  ZINC000590699876   -0.5200
     16 N16       -11.0306   -0.5884   59.9112 N.am    1  ZINC000590699876   -0.6100
     17 C17       -10.2012   -0.6433   58.6978 C.3     1  ZINC000590699876    0.1000
     18 C18        -9.9660   -2.1135   58.3352 C.3     1  ZINC000590699876    0.0400
     19 N19       -11.2592   -2.8030   58.2353 N.3     1  ZINC000590699876   -0.5200
     20 C20       -11.0894   -4.1690   57.7225 C.3     1  ZINC000590699876    0.0400
     21 C21       -12.2676   -4.5302   56.8553 C.2     1  ZINC000590699876    0.5200
     22 O22       -13.1755   -5.1929   57.3109 O.2     1  ZINC000590699876   -0.5100
     23 N23       -12.3127   -4.1167   55.5733 N.am    1  ZINC000590699876   -0.6100
     24 C24       -11.2207   -3.3132   55.0070 C.3     1  ZINC000590699876    0.1100
     25 C25       -11.8118   -2.0389   54.3959 C.3     1  ZINC000590699876   -0.1400
     26 C26       -12.9003   -2.4182   53.3892 C.3     1  ZINC000590699876   -0.1200
     27 C27       -14.0205   -3.1742   54.1073 C.3     1  ZINC000590699876   -0.1300
     28 C28       -13.4518   -4.4661   54.7136 C.3     1  ZINC000590699876    0.1400
     29 H29       -13.1232   -5.1309   53.9147 H       1  ZINC000590699876    0.0700
     30 C30       -14.5310   -5.1600   55.5470 C.3     1  ZINC000590699876   -0.1400
     31 C31       -11.9611   -2.8085   59.5257 C.3     1  ZINC000590699876    0.0400
     32 C32       -12.2751   -1.3717   59.9395 C.3     1  ZINC000590699876    0.1200
     33 H33        -4.6422    2.2227   65.8926 H       1  ZINC000590699876    0.1000
     34 H34        -4.9690    0.4784   66.0293 H       1  ZINC000590699876    0.0900
     35 H35        -4.8456    1.2375   64.4242 H       1  ZINC000590699876    0.0900
     36 H36        -7.1876   -0.0825   64.6053 H       1  ZINC000590699876    0.4100
     37 H37        -9.3837    0.6639   65.9327 H       1  ZINC000590699876    0.1000
     38 H38        -9.1289    2.0937   64.9035 H       1  ZINC000590699876    0.1000
     39 H39       -12.1490    1.7230   64.6344 H       1  ZINC000590699876    0.0800
     40 H40       -10.7909    2.7555   64.0915 H       1  ZINC000590699876    0.0800
     41 H41       -13.2057    3.0094   62.8995 H       1  ZINC000590699876    0.0900
     42 H42       -11.7250    3.0141   61.8835 H       1  ZINC000590699876    0.0800
     43 H43       -13.6310    0.6784   62.4701 H       1  ZINC000590699876    0.1000
     44 H44       -12.9437    1.1857   60.8923 H       1  ZINC000590699876    0.0900
     45 H45       -10.7170   -0.1422   57.8788 H       1  ZINC000590699876    0.0800
     46 H46        -9.2450   -0.1549   58.8854 H       1  ZINC000590699876    0.0900
     47 H47        -9.4468   -2.1736   57.3785 H       1  ZINC000590699876    0.0900
     48 H48        -9.3603   -2.5864   59.1083 H       1  ZINC000590699876    0.0400
     49 H49       -10.1740   -4.2248   57.1334 H       1  ZINC000590699876    0.1000
     50 H50       -11.0264   -4.8656   58.5584 H       1  ZINC000590699876    0.0600
     51 H51       -10.5160   -3.0475   55.7950 H       1  ZINC000590699876    0.0800
     52 H52       -10.7086   -3.8858   54.2338 H       1  ZINC000590699876    0.0700
     53 H53       -12.2444   -1.4237   55.1849 H       1  ZINC000590699876    0.0700
     54 H54       -11.0255   -1.4802   53.8882 H       1  ZINC000590699876    0.0800
     55 H55       -13.3056   -1.5143   52.9346 H       1  ZINC000590699876    0.0700
     56 H56       -12.4723   -3.0537   52.6139 H       1  ZINC000590699876    0.0600
     57 H57       -14.4324   -2.5484   54.8990 H       1  ZINC000590699876    0.0700
     58 H58       -14.8063   -3.4236   53.3941 H       1  ZINC000590699876    0.0700
     59 H59       -15.4059   -5.3480   54.9245 H       1  ZINC000590699876    0.0400
     60 H60       -14.1450   -6.1061   55.9262 H       1  ZINC000590699876    0.0700
     61 H61       -14.8113   -4.5203   56.3838 H       1  ZINC000590699876    0.0700
     62 H62       -12.8892   -3.3727   59.4325 H       1  ZINC000590699876    0.1100
     63 H63       -11.3278   -3.2718   60.2823 H       1  ZINC000590699876    0.0300
     64 H64       -12.6920   -1.3635   60.9466 H       1  ZINC000590699876    0.0900
     65 H65       -12.9900   -0.9374   59.2407 H       1  ZINC000590699876    0.0800
@<TRIPOS>BOND
     1     1     2    1
     2     1    33    1
     3     1    34    1
     4     1    35    1
     5     2     3    2
     6     2     4   am
     7     4     5    1
     8     4    36    1
     9     5     6    1
    10     5    37    1
    11     5    38    1
    12     6     7    2
    13     6     8   am
    14     8    12    1
    15     8     9    1
    16     9    10    1
    17     9    39    1
    18     9    40    1
    19    10    11    1
    20    10    41    1
    21    10    42    1
    22    11    12    1
    23    11    43    1
    24    11    44    1
    25    12    13    1
    26    12    14    1
    27    14    15    2
    28    14    16   am
    29    16    32    1
    30    16    17    1
    31    17    18    1
    32    17    45    1
    33    17    46    1
    34    18    19    1
    35    18    47    1
    36    18    48    1
    37    19    20    1
    38    19    31    1
    39    20    21    1
    40    20    49    1
    41    20    50    1
    42    21    22    2
    43    21    23   am
    44    23    28    1
    45    23    24    1
    46    24    25    1
    47    24    51    1
    48    24    52    1
    49    25    26    1
    50    25    53    1
    51    25    54    1
    52    26    27    1
    53    26    55    1
    54    26    56    1
    55    27    28    1
    56    27    57    1
    57    27    58    1
    58    28    29    1
    59    28    30    1
    60    30    59    1
    61    30    60    1
    62    30    61    1
    63    31    32    1
    64    31    62    1
    65    31    63    1
    66    32    64    1
    67    32    65    1
@<TRIPOS>SUBSTRUCTURE
     1 ZINC000590699876        1 TEMP              0 ****  ****    0 ROOT


##########                                Name:    ZINC001070580102
##########                DOCK_Rotatable_Bonds:                   8
##########                         Heavy_Atoms:                  25
##########                    Molecular_Weight:              349.39
##########                DOCK_Rotatable_Bonds:                   8
##########                       Formal_Charge:          -0.0100003
##########                     HBond_Acceptors:                   9
##########                        HBond_Donors:                   3
##########                         Heavy_Atoms:                  25
##########                          Grid_Score:          -36.475029
##########                     Grid_vdw_energy:          -34.110630
##########                      Grid_es_energy:           -2.364399
##########           Internal_energy_repulsive:            9.129150

@<TRIPOS>MOLECULE
ZINC001070580102
 48 50 1 0 0
SMALL
USER_CHARGES


@<TRIPOS>ATOM
      1 C1         -8.0734    0.8832   65.0607 C.3     1  ZINC001070580102   -0.0800
      2 C2         -8.8000    0.4354   63.8188 C.2     1  ZINC001070580102   -0.0100
      3 C3         -8.7711   -0.8037   63.3046 C.2     1  ZINC001070580102   -0.1900
      4 C4         -9.6214   -0.7637   62.1058 C.2     1  ZINC001070580102   -0.2500
      5 C5         -9.9169   -1.8764   61.1857 C.2     1  ZINC001070580102    0.6000
      6 O6        -11.0529   -2.2991   61.0878 O.2     1  ZINC001070580102   -0.5300
      7 N7         -8.9280   -2.4253   60.4526 N.am    1  ZINC001070580102   -0.7200
      8 C8         -9.2215   -3.5325   59.5393 C.3     1  ZINC001070580102    0.2000
      9 C9         -9.8838   -2.9963   58.2963 C.2     1  ZINC001070580102    0.2600
     10 N10       -10.4698   -3.7098   57.3693 N.2     1  ZINC001070580102   -0.5100
     11 C11       -10.9455   -2.9094   56.4161 C.2     1  ZINC001070580102    0.2300
     12 C12       -11.6848   -3.3600   55.1827 C.3     1  ZINC001070580102    0.1400
     13 H13       -11.4511   -4.4052   54.9797 H       1  ZINC001070580102    0.0800
     14 C14       -11.2601   -2.5002   53.9894 C.3     1  ZINC001070580102    0.0800
     15 O15       -12.0189   -2.8820   52.8390 O.3     1  ZINC001070580102   -0.3800
     16 C16       -13.4325   -2.7500   53.0117 C.3     1  ZINC001070580102    0.0600
     17 C17       -13.8793   -3.6124   54.1952 C.3     1  ZINC001070580102    0.0200
     18 N18       -13.1319   -3.2132   55.3966 N.3     1  ZINC001070580102   -0.5200
     19 C19       -13.5724   -3.9802   56.5696 C.3     1  ZINC001070580102    0.0600
     20 C20       -14.1679   -3.0270   57.6078 C.3     1  ZINC001070580102    0.0800
     21 O21       -15.5933   -3.1251   57.5822 O.3     1  ZINC001070580102   -0.5700
     22 N22       -10.6677   -1.6701   56.7249 N.2     1  ZINC001070580102   -0.2700
     23 N23        -9.9808   -1.7012   57.9495 N.pl3   1  ZINC001070580102   -0.4700
     24 C24       -10.0803    0.5184   62.0238 C.2     1  ZINC001070580102    0.0900
     25 C25       -10.9962    1.0601   60.9567 C.3     1  ZINC001070580102   -0.0900
     26 O26        -9.5840    1.2108   63.0535 O.3     1  ZINC001070580102   -0.1700
     27 H27        -8.2819    1.9373   65.2436 H       1  ZINC001070580102    0.0800
     28 H28        -8.4116    0.2929   65.9124 H       1  ZINC001070580102    0.0900
     29 H29        -7.0010    0.7432   64.9246 H       1  ZINC001070580102    0.0900
     30 H30        -8.2330   -1.6562   63.6920 H       1  ZINC001070580102    0.1500
     31 H31        -8.0221   -2.0874   60.5298 H       1  ZINC001070580102    0.4000
     32 H32        -8.2933   -4.0357   59.2682 H       1  ZINC001070580102    0.1000
     33 H33        -9.8890   -4.2410   60.0298 H       1  ZINC001070580102    0.1100
     34 H34       -11.4437   -1.4495   54.2142 H       1  ZINC001070580102    0.0700
     35 H35       -10.1987   -2.6506   53.7917 H       1  ZINC001070580102    0.1000
     36 H36       -13.6792   -1.7066   53.2081 H       1  ZINC001070580102    0.0600
     37 H37       -13.9423   -3.0812   52.1071 H       1  ZINC001070580102    0.1000
     38 H38       -14.9463   -3.4707   54.3664 H       1  ZINC001070580102    0.1200
     39 H39       -13.6812   -4.6617   53.9760 H       1  ZINC001070580102    0.0400
     40 H40       -14.3276   -4.7054   56.2669 H       1  ZINC001070580102    0.0500
     41 H41       -12.7197   -4.5028   57.0031 H       1  ZINC001070580102    0.0800
     42 H42       -13.8029   -3.2956   58.5991 H       1  ZINC001070580102    0.0500
     43 H43       -13.8698   -2.0046   57.3756 H       1  ZINC001070580102    0.0600
     44 H44       -16.0448   -2.4219   58.0689 H       1  ZINC001070580102    0.3800
     45 H45        -9.6386   -0.9398   58.4436 H       1  ZINC001070580102    0.4400
     46 H46       -12.0328    0.9354   61.2700 H       1  ZINC001070580102    0.0900
     47 H47       -10.7882    2.1190   60.8027 H       1  ZINC001070580102    0.0800
     48 H48       -10.8301    0.5181   60.0258 H       1  ZINC001070580102    0.1100
@<TRIPOS>BOND
     1     1     2    1
     2     1    27    1
     3     1    28    1
     4     1    29    1
     5     2    26    1
     6     2     3    2
     7     3     4    1
     8     3    30    1
     9     4     5    1
    10     4    24    2
    11     5     6    2
    12     5     7   am
    13     7     8    1
    14     7    31    1
    15     8     9    1
    16     8    32    1
    17     8    33    1
    18     9    23    1
    19     9    10    2
    20    10    11    1
    21    11    12    1
    22    11    22    2
    23    12    13    1
    24    12    18    1
    25    12    14    1
    26    14    15    1
    27    14    34    1
    28    14    35    1
    29    15    16    1
    30    16    17    1
    31    16    36    1
    32    16    37    1
    33    17    18    1
    34    17    38    1
    35    17    39    1
    36    18    19    1
    37    19    20    1
    38    19    40    1
    39    19    41    1
    40    20    21    1
    41    20    42    1
    42    20    43    1
    43    21    44    1
    44    22    23    1
    45    23    45    1
    46    24    25    1
    47    24    26    1
    48    25    46    1
    49    25    47    1
    50    25    48    1
@<TRIPOS>SUBSTRUCTURE
     1 ZINC001070580102        1 TEMP              0 ****  ****    0 ROOT


##########                                Name:    ZINC000193795672
##########                DOCK_Rotatable_Bonds:                  10
##########                         Heavy_Atoms:                  23
##########                    Molecular_Weight:              332.47
##########                DOCK_Rotatable_Bonds:                  10
##########                       Formal_Charge:        -2.98023e-07
##########                     HBond_Acceptors:                   6
##########                        HBond_Donors:                   3
##########                         Heavy_Atoms:                  23
##########                          Grid_Score:          -36.417595
##########                     Grid_vdw_energy:          -35.495094
##########                      Grid_es_energy:           -0.922502
##########           Internal_energy_repulsive:           13.312433

@<TRIPOS>MOLECULE
ZINC000193795672
 47 48 1 0 0
SMALL
USER_CHARGES


@<TRIPOS>ATOM
      1 C1         -8.9955   -2.9269   59.9579 C.3     1  <0>        -0.1000
      2 C2         -9.8058   -3.1550   58.7078 C.ar    1  <0>        -0.2000
      3 C3        -10.3937   -4.3899   58.4689 C.ar    1  <0>        -0.0300
      4 C4        -11.1296   -4.5574   57.3095 C.ar    1  <0>        -0.2400
      5 C5        -11.2549   -3.4893   56.4275 C.ar    1  <0>         0.4000
      6 N6        -11.9915   -3.6438   55.2588 N.pl3   1  <0>        -0.7300
      7 C7        -11.9427   -2.6117   54.2202 C.3     1  <0>         0.1300
      8 C8        -10.9611   -3.0355   53.1259 C.3     1  <0>        -0.1400
      9 C9        -10.6649   -1.8415   52.2162 C.3     1  <0>         0.1400
     10 N10        -9.5552   -1.0652   52.7750 N.am    1  <0>        -0.7500
     11 C11        -9.5654    0.2799   52.6934 C.2     1  <0>         0.7100
     12 O12       -10.4965    0.8494   52.1574 O.2     1  <0>        -0.5900
     13 N13        -8.5438    0.9940   53.2061 N.am    1  <0>        -0.7400
     14 C14        -8.5541    2.4561   53.1158 C.3     1  <0>         0.1700
     15 H15        -9.5449    2.8292   53.3747 H       1  <0>         0.0900
     16 C16        -7.5218    3.0343   54.0859 C.3     1  <0>        -0.1700
     17 C17        -8.2061    2.8814   51.6878 C.3     1  <0>        -0.0600
     18 C18        -6.8646    2.3104   51.3065 C.2     1  <0>        -0.1700
     19 C19        -5.6892    2.9081   51.5077 C.2     1  <0>        -0.1400
     20 C20        -4.5880    2.1902   51.0739 C.2     1  <0>        -0.1300
     21 C21        -4.8691    1.0096   50.5204 C.2     1  <0>        -0.2100
     22 S22        -6.6087    0.7506   50.5351 S.3     1  <0>         0.0900
     23 N23       -10.6791   -2.3264   56.6914 N.ar    1  <0>        -0.5400
     24 C24        -9.9756   -2.1365   57.7914 C.ar    1  <0>         0.1500
     25 H25        -9.6485   -2.5684   60.7537 H       1  <0>         0.0700
     26 H26        -8.5293   -3.8631   60.2646 H       1  <0>         0.0600
     27 H27        -8.2229   -2.1840   59.7596 H       1  <0>         0.0700
     28 H28       -10.2788   -5.2015   59.1722 H       1  <0>         0.1300
     29 H29       -11.6002   -5.5050   57.0921 H       1  <0>         0.1300
     30 H30       -12.5379   -4.4351   55.1310 H       1  <0>         0.4000
     31 H31       -12.9353   -2.4838   53.7883 H       1  <0>         0.0700
     32 H32       -11.6132   -1.6700   54.6591 H       1  <0>         0.0700
     33 H33       -10.0345   -3.3824   53.5834 H       1  <0>         0.0800
     34 H34       -11.3993   -3.8412   52.5368 H       1  <0>         0.0800
     35 H35       -10.3939   -2.1997   51.2231 H       1  <0>         0.0700
     36 H36       -11.5506   -1.2101   52.1455 H       1  <0>         0.0700
     37 H37        -8.8131   -1.5195   53.2038 H       1  <0>         0.4000
     38 H38        -7.8016    0.5397   53.6348 H       1  <0>         0.3900
     39 H39        -6.5309    2.6613   53.8270 H       1  <0>         0.0600
     40 H40        -7.5294    4.1222   54.0187 H       1  <0>         0.0700
     41 H41        -7.7697    2.7314   55.1032 H       1  <0>         0.0700
     42 H42        -8.9675    2.5095   51.0023 H       1  <0>         0.1000
     43 H43        -8.1670    3.9692   51.6320 H       1  <0>         0.0800
     44 H44        -5.6032    3.8786   51.9735 H       1  <0>         0.1400
     45 H45        -3.5777    2.5583   51.1755 H       1  <0>         0.1400
     46 H46        -4.1398    0.3170   50.1268 H       1  <0>         0.1600
     47 H47        -9.5201   -1.1743   57.9733 H       1  <0>         0.1500
@<TRIPOS>BOND
     1     1     2    1
     2     1    25    1
     3     1    26    1
     4     1    27    1
     5     2    24   ar
     6     2     3   ar
     7     3     4   ar
     8     3    28    1
     9     4     5   ar
    10     4    29    1
    11     5     6    1
    12     5    23   ar
    13     6     7    1
    14     6    30    1
    15     7     8    1
    16     7    31    1
    17     7    32    1
    18     8     9    1
    19     8    33    1
    20     8    34    1
    21     9    10    1
    22     9    35    1
    23     9    36    1
    24    10    11   am
    25    10    37    1
    26    11    12    2
    27    11    13   am
    28    13    14    1
    29    13    38    1
    30    14    15    1
    31    14    16    1
    32    14    17    1
    33    16    39    1
    34    16    40    1
    35    16    41    1
    36    17    18    1
    37    17    42    1
    38    17    43    1
    39    18    22    1
    40    18    19    2
    41    19    20    1
    42    19    44    1
    43    20    21    2
    44    20    45    1
    45    21    22    1
    46    21    46    1
    47    23    24   ar
    48    24    47    1
@<TRIPOS>SUBSTRUCTURE
     1 <0>         1 TEMP              0 ****  ****    0 ROOT


##########                                Name:    ZINC001077846158
##########                DOCK_Rotatable_Bonds:                   7
##########                         Heavy_Atoms:                  24
##########                    Molecular_Weight:             350.442
##########                DOCK_Rotatable_Bonds:                   7
##########                       Formal_Charge:          -0.0600002
##########                     HBond_Acceptors:                   8
##########                        HBond_Donors:                   2
##########                         Heavy_Atoms:                  24
##########                          Grid_Score:          -36.400970
##########                     Grid_vdw_energy:          -35.404583
##########                      Grid_es_energy:           -0.996386
##########           Internal_energy_repulsive:            6.541073

@<TRIPOS>MOLECULE
ZINC001077846158
 46 48 1 0 0
SMALL
USER_CHARGES


@<TRIPOS>ATOM
      1 C1        -13.3905   -0.7834   52.4428 C.3     1  ZINC001077846158   -0.0700
      2 C2        -12.0758   -1.5130   52.5457 C.2     1  ZINC001077846158    0.0100
      3 C3        -11.8927   -2.7519   53.0317 C.2     1  ZINC001077846158   -0.0500
      4 C4        -12.9598   -3.6679   53.5731 C.3     1  ZINC001077846158    0.1300
      5 N5        -13.1673   -3.3881   55.0002 N.3     1  ZINC001077846158   -0.5100
      6 C6        -14.2119   -4.2768   55.5705 C.3     1  ZINC001077846158    0.0000
      7 C7        -13.9270   -4.2275   57.0927 C.3     1  ZINC001077846158    0.1000
      8 H8        -14.3538   -3.3278   57.5360 H       1  ZINC001077846158    0.0800
      9 O9        -14.4327   -5.3968   57.7399 O.3     1  ZINC001077846158   -0.5600
     10 C10       -12.3828   -4.1881   57.1542 C.3     1  ZINC001077846158    0.1400
     11 H11       -11.9851   -5.1891   57.3211 H       1  ZINC001077846158    0.1100
     12 N12       -11.9392   -3.2819   58.2164 N.am    1  ZINC001077846158   -0.7000
     13 C13       -10.7591   -3.4924   58.8326 C.2     1  ZINC001077846158    0.6000
     14 O14       -10.0630   -4.4354   58.5076 O.2     1  ZINC001077846158   -0.5300
     15 C15       -10.3123   -2.5805   59.8991 C.2     1  ZINC001077846158    0.0100
     16 C16        -9.1846   -2.7797   60.6177 C.2     1  ZINC001077846158   -0.2300
     17 S17        -9.0189   -1.5082   61.7482 S.3     1  ZINC001077846158    0.2300
     18 C18       -10.4639   -0.7843   61.1966 C.2     1  ZINC001077846158    0.0300
     19 C19       -11.0490    0.4912   61.7461 C.3     1  ZINC001077846158   -0.0200
     20 C20       -12.2198    0.1575   62.6727 C.3     1  ZINC001077846158   -0.1500
     21 C21        -9.9760    1.2474   62.5320 C.3     1  ZINC001077846158   -0.1500
     22 N22       -10.9805   -1.4762   60.2430 N.2     1  ZINC001077846158   -0.4500
     23 C23       -11.9388   -3.6594   55.7778 C.3     1  ZINC001077846158    0.0300
     24 O24       -10.5754   -3.0215   52.9437 O.3     1  ZINC001077846158   -0.2100
     25 C25        -9.9740   -1.9509   52.4083 C.2     1  ZINC001077846158    0.1800
     26 N26       -10.8755   -1.0434   52.1623 N.2     1  ZINC001077846158   -0.4900
     27 H27       -13.8525   -1.0014   51.4799 H       1  ZINC001077846158    0.0800
     28 H28       -14.0515   -1.1107   53.2453 H       1  ZINC001077846158    0.0700
     29 H29       -13.2183    0.2895   52.5285 H       1  ZINC001077846158    0.0700
     30 H30       -13.8907   -3.5016   53.0311 H       1  ZINC001077846158    0.0600
     31 H31       -12.6466   -4.7044   53.4480 H       1  ZINC001077846158    0.1100
     32 H32       -15.2072   -3.8896   55.3527 H       1  ZINC001077846158    0.0900
     33 H33       -14.1016   -5.2927   55.1912 H       1  ZINC001077846158    0.0600
     34 H34       -15.3956   -5.4795   57.7064 H       1  ZINC001077846158    0.3900
     35 H35       -12.4948   -2.5305   58.4764 H       1  ZINC001077846158    0.4100
     36 H36        -8.5005   -3.6067   60.4973 H       1  ZINC001077846158    0.1900
     37 H37       -11.4025    1.1127   60.9233 H       1  ZINC001077846158    0.1000
     38 H38       -12.9843   -0.3813   62.1128 H       1  ZINC001077846158    0.0600
     39 H39       -11.8664   -0.4641   63.4954 H       1  ZINC001077846158    0.0600
     40 H40       -12.6430    1.0800   63.0701 H       1  ZINC001077846158    0.0700
     41 H41        -9.1420    1.4851   61.8719 H       1  ZINC001077846158    0.0600
     42 H42       -10.3993    2.1700   62.9295 H       1  ZINC001077846158    0.0700
     43 H43        -9.6225    0.6259   63.3548 H       1  ZINC001077846158    0.0600
     44 H44       -11.3353   -4.4106   55.2684 H       1  ZINC001077846158    0.0600
     45 H45       -11.3663   -2.7399   55.9001 H       1  ZINC001077846158    0.0900
     46 H46        -8.9166   -1.8572   52.2093 H       1  ZINC001077846158    0.2500
@<TRIPOS>BOND
     1     1     2    1
     2     1    27    1
     3     1    28    1
     4     1    29    1
     5     2    26    1
     6     2     3    2
     7     3     4    1
     8     3    24    1
     9     4     5    1
    10     4    30    1
    11     4    31    1
    12     5    23    1
    13     5     6    1
    14     6     7    1
    15     6    32    1
    16     6    33    1
    17     7     8    1
    18     7     9    1
    19     7    10    1
    20     9    34    1
    21    10    11    1
    22    10    12    1
    23    10    23    1
    24    12    13   am
    25    12    35    1
    26    13    14    2
    27    13    15    1
    28    15    22    1
    29    15    16    2
    30    16    17    1
    31    16    36    1
    32    17    18    1
    33    18    19    1
    34    18    22    2
    35    19    20    1
    36    19    21    1
    37    19    37    1
    38    20    38    1
    39    20    39    1
    40    20    40    1
    41    21    41    1
    42    21    42    1
    43    21    43    1
    44    23    44    1
    45    23    45    1
    46    24    25    1
    47    25    26    2
    48    25    46    1
@<TRIPOS>SUBSTRUCTURE
     1 ZINC001077846158        1 TEMP              0 ****  ****    0 ROOT


##########                                Name:    ZINC000772422035
##########                DOCK_Rotatable_Bonds:                  10
##########                         Heavy_Atoms:                  25
##########                    Molecular_Weight:             348.399
##########                DOCK_Rotatable_Bonds:                  10
##########                       Formal_Charge:          0.00999987
##########                     HBond_Acceptors:                   7
##########                        HBond_Donors:                   0
##########                         Heavy_Atoms:                  25
##########                          Grid_Score:          -36.370571
##########                     Grid_vdw_energy:          -36.019588
##########                      Grid_es_energy:           -0.350983
##########           Internal_energy_repulsive:           14.392477

@<TRIPOS>MOLECULE
ZINC000772422035
 49 50 1 0 0
SMALL
USER_CHARGES


@<TRIPOS>ATOM
      1 C1         -3.0805    1.6974   48.1996 C.3     1  ZINC000772422035    0.0300
      2 O2         -2.5063    1.7343   49.5077 O.3     1  ZINC000772422035   -0.3900
      3 C3         -3.4195    2.1316   50.5324 C.3     1  ZINC000772422035    0.0600
      4 C4         -4.5835    1.1404   50.5905 C.3     1  ZINC000772422035    0.0700
      5 O5         -5.4768    1.5157   51.6409 O.3     1  ZINC000772422035   -0.3000
      6 C6         -6.5867    0.7534   51.8072 C.ar    1  ZINC000772422035    0.3300
      7 C7         -7.5290    1.1101   52.7630 C.ar    1  ZINC000772422035   -0.1700
      8 C8         -8.6571    0.3240   52.9228 C.ar    1  ZINC000772422035   -0.0200
      9 C9         -9.7034    0.6768   53.9484 C.3     1  ZINC000772422035    0.1100
     10 O10        -9.3536    0.0758   55.2231 O.3     1  ZINC000772422035   -0.3500
     11 C11       -10.2479    0.1918   56.2174 C.2     1  ZINC000772422035    0.4700
     12 O12       -11.2092    0.9118   56.0843 O.2     1  ZINC000772422035   -0.5000
     13 C13       -10.0531   -0.5759   57.4993 C.3     1  ZINC000772422035   -0.1100
     14 C14       -11.2459   -1.5080   57.7220 C.3     1  ZINC000772422035    0.0000
     15 H15       -11.7949   -1.6249   56.7876 H       1  ZINC000772422035    0.1000
     16 C16       -12.1695   -0.9094   58.7848 C.3     1  ZINC000772422035   -0.1500
     17 C17       -10.7519   -2.8539   58.1861 C.2     1  ZINC000772422035   -0.2000
     18 C18       -11.1049   -4.0769   57.7231 C.2     1  ZINC000772422035   -0.0200
     19 C19       -12.0885   -4.3751   56.6211 C.3     1  ZINC000772422035   -0.0800
     20 O20       -10.4066   -4.9696   58.4389 O.3     1  ZINC000772422035    0.1000
     21 N21        -9.6966   -4.4281   59.2541 N.2     1  ZINC000772422035   -0.3600
     22 C22        -9.8082   -3.1321   59.2013 C.2     1  ZINC000772422035    0.0300
     23 C23        -9.0826   -2.1278   60.0592 C.3     1  ZINC000772422035   -0.0800
     24 C24        -8.8029   -0.7963   52.1167 C.ar    1  ZINC000772422035   -0.1900
     25 C25        -7.8256   -1.0910   51.1865 C.ar    1  ZINC000772422035    0.1400
     26 N26        -6.7637   -0.3193   51.0537 N.ar    1  ZINC000772422035   -0.5300
     27 H27        -2.3237    1.3871   47.4791 H       1  ZINC000772422035    0.0900
     28 H28        -3.9078    0.9878   48.1860 H       1  ZINC000772422035    0.0400
     29 H29        -3.4481    2.6891   47.9360 H       1  ZINC000772422035    0.0400
     30 H30        -2.9047    2.1442   51.4931 H       1  ZINC000772422035    0.0600
     31 H31        -3.8017    3.1284   50.3120 H       1  ZINC000772422035    0.0700
     32 H32        -5.1165    1.1496   49.6397 H       1  ZINC000772422035    0.0800
     33 H33        -4.1985    0.1387   50.7814 H       1  ZINC000772422035    0.0800
     34 H34        -7.3834    1.9888   53.3738 H       1  ZINC000772422035    0.1400
     35 H35        -9.7532    1.7600   54.0589 H       1  ZINC000772422035    0.0900
     36 H36       -10.6730    0.2998   53.6229 H       1  ZINC000772422035    0.0900
     37 H37        -9.1385   -1.1654   57.4345 H       1  ZINC000772422035    0.1100
     38 H38        -9.9771    0.1222   58.3330 H       1  ZINC000772422035    0.1100
     39 H39       -11.5910   -0.6745   59.6782 H       1  ZINC000772422035    0.0600
     40 H40       -12.6263    0.0015   58.3978 H       1  ZINC000772422035    0.0800
     41 H41       -12.9492   -1.6287   59.0353 H       1  ZINC000772422035    0.0600
     42 H42       -11.5835   -4.3141   55.6571 H       1  ZINC000772422035    0.0900
     43 H43       -12.4929   -5.3782   56.7566 H       1  ZINC000772422035    0.0900
     44 H44       -12.9006   -3.6487   56.6525 H       1  ZINC000772422035    0.0900
     45 H45        -8.1851   -1.7891   59.5417 H       1  ZINC000772422035    0.0800
     46 H46        -9.7346   -1.2758   60.2515 H       1  ZINC000772422035    0.0800
     47 H47        -8.8032   -2.5923   61.0050 H       1  ZINC000772422035    0.0800
     48 H48        -9.6710   -1.4310   52.2159 H       1  ZINC000772422035    0.1400
     49 H49        -7.9343   -1.9615   50.5567 H       1  ZINC000772422035    0.1700
@<TRIPOS>BOND
     1     1     2    1
     2     1    27    1
     3     1    28    1
     4     1    29    1
     5     2     3    1
     6     3     4    1
     7     3    30    1
     8     3    31    1
     9     4     5    1
    10     4    32    1
    11     4    33    1
    12     5     6    1
    13     6    26   ar
    14     6     7   ar
    15     7     8   ar
    16     7    34    1
    17     8     9    1
    18     8    24   ar
    19     9    10    1
    20     9    35    1
    21     9    36    1
    22    10    11    1
    23    11    12    2
    24    11    13    1
    25    13    14    1
    26    13    37    1
    27    13    38    1
    28    14    15    1
    29    14    16    1
    30    14    17    1
    31    16    39    1
    32    16    40    1
    33    16    41    1
    34    17    22    1
    35    17    18    2
    36    18    19    1
    37    18    20    1
    38    19    42    1
    39    19    43    1
    40    19    44    1
    41    20    21    1
    42    21    22    2
    43    22    23    1
    44    23    45    1
    45    23    46    1
    46    23    47    1
    47    24    25   ar
    48    24    48    1
    49    25    26   ar
    50    25    49    1
@<TRIPOS>SUBSTRUCTURE
     1 ZINC000772422035        1 TEMP              0 ****  ****    0 ROOT


##########                                Name:    ZINC000433961694
##########                DOCK_Rotatable_Bonds:                   7
##########                         Heavy_Atoms:                  29
##########                    Molecular_Weight:             413.472
##########                DOCK_Rotatable_Bonds:                   7
##########                       Formal_Charge:          0.00999992
##########                     HBond_Acceptors:                   8
##########                        HBond_Donors:                   0
##########                         Heavy_Atoms:                  29
##########                          Grid_Score:          -36.331024
##########                     Grid_vdw_energy:          -36.570721
##########                      Grid_es_energy:            0.239698
##########           Internal_energy_repulsive:           12.848993

@<TRIPOS>MOLECULE
ZINC000433961694
 49 52 1 0 0
SMALL
USER_CHARGES


@<TRIPOS>ATOM
      1 C1        -13.0582   -5.3590   56.5544 C.3     1  ZINC000433961694   -0.1000
      2 C2        -12.1081   -4.2477   56.9194 C.2     1  ZINC000433961694    0.1600
      3 C3        -12.1278   -3.0330   56.3156 C.2     1  ZINC000433961694   -0.3000
      4 C4        -13.0411   -2.6131   55.2474 C.2     1  ZINC000433961694    0.6200
      5 O5        -14.2373   -2.5472   55.4605 O.2     1  ZINC000433961694   -0.5100
      6 N6        -12.5552   -2.3001   54.0298 N.am    1  ZINC000433961694   -0.6100
      7 C7        -11.1349   -2.3360   53.6361 C.3     1  ZINC000433961694    0.1100
      8 C8        -11.1542   -2.5152   52.0976 C.3     1  ZINC000433961694   -0.1300
      9 C9        -12.3781   -1.6492   51.6984 C.3     1  ZINC000433961694    0.0800
     10 H10       -12.0979   -0.5987   51.6194 H       1  ZINC000433961694    0.1000
     11 O11       -12.9467   -2.1123   50.4719 O.3     1  ZINC000433961694   -0.2900
     12 C12       -13.9056   -1.3364   49.9054 C.ar    1  ZINC000433961694    0.1700
     13 C13       -14.5828   -1.7577   48.7638 C.ar    1  ZINC000433961694   -0.2600
     14 C14       -15.5509   -0.9400   48.2180 C.ar    1  ZINC000433961694    0.1400
     15 N15       -15.8373    0.2265   48.7643 N.ar    1  ZINC000433961694   -0.5100
     16 C16       -15.2178    0.6602   49.8457 C.ar    1  ZINC000433961694    0.1400
     17 C17       -14.2414   -0.1014   50.4544 C.ar    1  ZINC000433961694   -0.2000
     18 C18       -13.3545   -1.8725   52.8722 C.3     1  ZINC000433961694    0.0600
     19 S19       -10.8601   -2.0502   57.0450 S.3     1  ZINC000433961694    0.2100
     20 C20       -10.4338   -3.3470   58.0741 C.2     1  ZINC000433961694    0.0400
     21 C21        -9.3312   -3.3038   59.1005 C.3     1  ZINC000433961694    0.1400
     22 O22        -9.8956   -3.3974   60.4100 O.3     1  ZINC000433961694   -0.3000
     23 C23       -10.0378   -2.2377   61.1051 C.ar    1  ZINC000433961694    0.1200
     24 C24        -9.0241   -1.8041   61.9467 C.ar    1  ZINC000433961694   -0.1800
     25 C25        -9.1700   -0.6255   62.6524 C.ar    1  ZINC000433961694   -0.1100
     26 C26       -10.3275    0.1225   62.5204 C.ar    1  ZINC000433961694    0.0600
     27 F27       -10.4691    1.2748   63.2115 F       1  ZINC000433961694   -0.1400
     28 C28       -11.3400   -0.3089   61.6803 C.ar    1  ZINC000433961694   -0.1100
     29 C29       -11.1944   -1.4843   60.9690 C.ar    1  ZINC000433961694   -0.1200
     30 N30       -11.1956   -4.3692   57.8507 N.2     1  ZINC000433961694   -0.4500
     31 H31       -13.9566   -5.2849   57.1673 H       1  ZINC000433961694    0.0800
     32 H32       -13.3285   -5.2748   55.5018 H       1  ZINC000433961694    0.1000
     33 H33       -12.5768   -6.3210   56.7301 H       1  ZINC000433961694    0.0800
     34 H34       -10.6436   -1.4003   53.9029 H       1  ZINC000433961694    0.0800
     35 H35       -10.6311   -3.1784   54.1100 H       1  ZINC000433961694    0.1000
     36 H36       -10.2393   -2.1296   51.6479 H       1  ZINC000433961694    0.1000
     37 H37       -11.3101   -3.5598   51.8279 H       1  ZINC000433961694    0.1000
     38 H38       -14.3529   -2.7112   48.3115 H       1  ZINC000433961694    0.1400
     39 H39       -16.0807   -1.2587   47.3325 H       1  ZINC000433961694    0.1600
     40 H40       -15.4813    1.6212   50.2621 H       1  ZINC000433961694    0.1700
     41 H41       -13.7383    0.2592   51.3395 H       1  ZINC000433961694    0.1400
     42 H42       -14.0789   -2.6438   52.6104 H       1  ZINC000433961694    0.0900
     43 H43       -13.8701   -0.9414   53.1078 H       1  ZINC000433961694    0.0800
     44 H44        -8.6504   -4.1394   58.9378 H       1  ZINC000433961694    0.0900
     45 H45        -8.7840   -2.3658   59.0069 H       1  ZINC000433961694    0.1000
     46 H46        -8.1214   -2.3877   62.0505 H       1  ZINC000433961694    0.1400
     47 H47        -8.3808   -0.2876   63.3078 H       1  ZINC000433961694    0.1400
     48 H48       -12.2423    0.2756   61.5780 H       1  ZINC000433961694    0.1500
     49 H49       -11.9843   -1.8206   60.3138 H       1  ZINC000433961694    0.1400
@<TRIPOS>BOND
     1     1     2    1
     2     1    31    1
     3     1    32    1
     4     1    33    1
     5     2    30    1
     6     2     3    2
     7     3     4    1
     8     3    19    1
     9     4     5    2
    10     4     6   am
    11     6    18    1
    12     6     7    1
    13     7     8    1
    14     7    34    1
    15     7    35    1
    16     8     9    1
    17     8    36    1
    18     8    37    1
    19     9    10    1
    20     9    11    1
    21     9    18    1
    22    11    12    1
    23    12    17   ar
    24    12    13   ar
    25    13    14   ar
    26    13    38    1
    27    14    15   ar
    28    14    39    1
    29    15    16   ar
    30    16    17   ar
    31    16    40    1
    32    17    41    1
    33    18    42    1
    34    18    43    1
    35    19    20    1
    36    20    21    1
    37    20    30    2
    38    21    22    1
    39    21    44    1
    40    21    45    1
    41    22    23    1
    42    23    29   ar
    43    23    24   ar
    44    24    25   ar
    45    24    46    1
    46    25    26   ar
    47    25    47    1
    48    26    27    1
    49    26    28   ar
    50    28    29   ar
    51    28    48    1
    52    29    49    1
@<TRIPOS>SUBSTRUCTURE
     1 ZINC000433961694        1 TEMP              0 ****  ****    0 ROOT


##########                                Name:    ZINC000375302598
##########                DOCK_Rotatable_Bonds:                   8
##########                         Heavy_Atoms:                  27
##########                    Molecular_Weight:             368.479
##########                DOCK_Rotatable_Bonds:                   8
##########                       Formal_Charge:               -0.02
##########                     HBond_Acceptors:                   6
##########                        HBond_Donors:                   1
##########                         Heavy_Atoms:                  27
##########                          Grid_Score:          -36.328480
##########                     Grid_vdw_energy:          -35.180584
##########                      Grid_es_energy:           -1.147895
##########           Internal_energy_repulsive:            9.107651

@<TRIPOS>MOLECULE
ZINC000375302598
 55 58 1 0 0
SMALL
USER_CHARGES


@<TRIPOS>ATOM
      1 C1        -14.2520   -5.4003   56.8715 C.3     1  ZINC000375302598   -0.1500
      2 C2        -13.1419   -4.5179   56.2969 C.3     1  ZINC000375302598   -0.0300
      3 C3        -12.0573   -4.3400   57.3277 C.2     1  ZINC000375302598    0.1800
      4 N4        -12.0101   -3.4201   58.2610 N.2     1  ZINC000375302598   -0.4700
      5 C5        -10.8709   -3.6495   58.9382 C.2     1  ZINC000375302598    0.1800
      6 C6        -10.3579   -2.8591   60.1143 C.3     1  ZINC000375302598    0.1500
      7 N7        -10.7158   -1.4442   59.9470 N.3     1  ZINC000375302598   -0.5300
      8 C8        -10.8130   -0.7687   61.2472 C.3     1  ZINC000375302598    0.0500
      9 C9        -11.3272    0.6584   61.0448 C.3     1  ZINC000375302598   -0.1100
     10 C10       -10.3657    1.4165   60.1254 C.3     1  ZINC000375302598   -0.1300
     11 C11       -10.2450    0.6662   58.7961 C.3     1  ZINC000375302598    0.1500
     12 H12       -11.2180    0.6354   58.3059 H       1  ZINC000375302598    0.1000
     13 N13        -9.2834    1.3547   57.9315 N.am    1  ZINC000375302598   -0.7300
     14 C14        -9.4853    1.3983   56.5996 C.2     1  ZINC000375302598    0.5200
     15 O15       -10.4624    0.8661   56.1168 O.2     1  ZINC000375302598   -0.5300
     16 C16        -8.4971    2.1079   55.7104 C.3     1  ZINC000375302598   -0.1100
     17 C17        -7.1464    2.2024   56.4227 C.3     1  ZINC000375302598   -0.1200
     18 H18        -6.7139    1.2529   56.7382 H       1  ZINC000375302598    0.1200
     19 C19        -6.9018    3.4212   57.3146 C.3     1  ZINC000375302598   -0.1700
     20 C20        -6.1834    3.3010   55.9683 C.3     1  ZINC000375302598   -0.1100
     21 H21        -6.5122    3.9568   55.1620 H       1  ZINC000375302598    0.1100
     22 C22        -4.7094    2.9885   55.9915 C.ar    1  ZINC000375302598   -0.0500
     23 C23        -4.1764    2.2464   57.0291 C.ar    1  ZINC000375302598   -0.1200
     24 C24        -2.8243    1.9597   57.0504 C.ar    1  ZINC000375302598   -0.1200
     25 C25        -2.0052    2.4146   56.0341 C.ar    1  ZINC000375302598   -0.1300
     26 C26        -2.5382    3.1559   54.9962 C.ar    1  ZINC000375302598   -0.1200
     27 C27        -3.8911    3.4390   54.9726 C.ar    1  ZINC000375302598   -0.1100
     28 C28        -9.7622   -0.7611   59.0636 C.3     1  ZINC000375302598    0.0500
     29 N29       -10.2942   -4.6781   58.3924 N.2     1  ZINC000375302598   -0.3800
     30 O30       -10.9624   -5.0933   57.4691 O.3     1  ZINC000375302598    0.0800
     31 H31       -14.6694   -4.9265   57.7601 H       1  ZINC000375302598    0.0600
     32 H32       -15.0365   -5.5290   56.1259 H       1  ZINC000375302598    0.0800
     33 H33       -13.8408   -6.3739   57.1381 H       1  ZINC000375302598    0.0600
     34 H34       -12.7245   -4.9917   55.4084 H       1  ZINC000375302598    0.1100
     35 H35       -13.5531   -3.5442   56.0303 H       1  ZINC000375302598    0.1000
     36 H36       -10.8054   -3.2411   61.0319 H       1  ZINC000375302598    0.0700
     37 H37        -9.2736   -2.9553   60.1715 H       1  ZINC000375302598    0.1100
     38 H38       -11.5029   -1.3156   61.8900 H       1  ZINC000375302598    0.0800
     39 H39        -9.8289   -0.7373   61.7146 H       1  ZINC000375302598    0.0400
     40 H40       -12.3173    0.6274   60.5901 H       1  ZINC000375302598    0.0700
     41 H41       -11.3844    1.1647   62.0085 H       1  ZINC000375302598    0.0700
     42 H42       -10.7507    2.4201   59.9436 H       1  ZINC000375302598    0.0700
     43 H43        -9.3854    1.4815   60.5974 H       1  ZINC000375302598    0.0600
     44 H44        -8.5014    1.7793   58.3175 H       1  ZINC000375302598    0.4000
     45 H45        -8.3796    1.5509   54.7808 H       1  ZINC000375302598    0.1000
     46 H46        -8.8622    3.1109   55.4893 H       1  ZINC000375302598    0.1000
     47 H47        -7.7031    4.1558   57.3940 H       1  ZINC000375302598    0.1000
     48 H48        -6.3080    3.2737   58.2167 H       1  ZINC000375302598    0.1000
     49 H49        -4.8165    1.8910   57.8231 H       1  ZINC000375302598    0.1200
     50 H50        -2.4079    1.3806   57.8613 H       1  ZINC000375302598    0.1200
     51 H51        -0.9486    2.1912   56.0511 H       1  ZINC000375302598    0.1200
     52 H52        -1.8982    3.5116   54.2023 H       1  ZINC000375302598    0.1200
     53 H53        -4.3075    4.0181   54.1617 H       1  ZINC000375302598    0.1200
     54 H54        -8.7830   -0.7297   59.5413 H       1  ZINC000375302598    0.0400
     55 H55        -9.6888   -1.3025   58.1204 H       1  ZINC000375302598    0.0900
@<TRIPOS>BOND
     1     1     2    1
     2     1    31    1
     3     1    32    1
     4     1    33    1
     5     2     3    1
     6     2    34    1
     7     2    35    1
     8     3    30    1
     9     3     4    2
    10     4     5    1
    11     5     6    1
    12     5    29    2
    13     6     7    1
    14     6    36    1
    15     6    37    1
    16     7    28    1
    17     7     8    1
    18     8     9    1
    19     8    38    1
    20     8    39    1
    21     9    10    1
    22     9    40    1
    23     9    41    1
    24    10    11    1
    25    10    42    1
    26    10    43    1
    27    11    12    1
    28    11    13    1
    29    11    28    1
    30    13    14   am
    31    13    44    1
    32    14    15    2
    33    14    16    1
    34    16    17    1
    35    16    45    1
    36    16    46    1
    37    17    18    1
    38    17    20    1
    39    17    19    1
    40    19    20    1
    41    19    47    1
    42    19    48    1
    43    20    21    1
    44    20    22    1
    45    22    27   ar
    46    22    23   ar
    47    23    24   ar
    48    23    49    1
    49    24    25   ar
    50    24    50    1
    51    25    26   ar
    52    25    51    1
    53    26    27   ar
    54    26    52    1
    55    27    53    1
    56    28    54    1
    57    28    55    1
    58    29    30    1
@<TRIPOS>SUBSTRUCTURE
     1 ZINC000375302598        1 TEMP              0 ****  ****    0 ROOT


##########                                Name:    ZINC000880838037
##########                DOCK_Rotatable_Bonds:                   9
##########                         Heavy_Atoms:                  24
##########                    Molecular_Weight:             365.477
##########                DOCK_Rotatable_Bonds:                   9
##########                       Formal_Charge:           0.0200001
##########                     HBond_Acceptors:                   8
##########                        HBond_Donors:                   3
##########                         Heavy_Atoms:                  24
##########                          Grid_Score:          -36.313168
##########                     Grid_vdw_energy:          -34.799641
##########                      Grid_es_energy:           -1.513527
##########           Internal_energy_repulsive:            8.551479

@<TRIPOS>MOLECULE
ZINC000880838037
 43 44 1 0 0
SMALL
USER_CHARGES


@<TRIPOS>ATOM
      1 C1         -9.1171    0.1402   63.2770 C.3     1  ZINC000880838037    0.0300
      2 O2        -10.2400   -0.3022   62.5118 O.3     1  ZINC000880838037   -0.3100
      3 C3         -9.9820   -0.8322   61.2874 C.ar    1  ZINC000880838037    0.1400
      4 C4         -9.3362   -2.0560   61.1827 C.ar    1  ZINC000880838037   -0.2200
      5 C5         -9.0730   -2.5962   59.9380 C.ar    1  ZINC000880838037   -0.0700
      6 C6         -9.4512   -1.9198   58.7947 C.ar    1  ZINC000880838037   -0.1500
      7 C7        -10.0976   -0.6940   58.8935 C.ar    1  ZINC000880838037    0.1800
      8 N8        -10.4808   -0.0088   57.7352 N.am    1  ZINC000880838037   -0.6700
      9 C9         -9.5428    0.4769   56.8982 C.2     1  ZINC000880838037    0.5200
     10 O10        -8.3666    0.3201   57.1488 O.2     1  ZINC000880838037   -0.4900
     11 C11        -9.9556    1.2149   55.6508 C.3     1  ZINC000880838037   -0.0600
     12 C12        -9.7021    0.3459   54.4459 C.2     1  ZINC000880838037    0.1000
     13 C13       -10.5324   -0.6285   54.0730 C.2     1  ZINC000880838037   -0.2600
     14 S14        -9.8691   -1.3904   52.6297 S.3     1  ZINC000880838037    0.1300
     15 C15        -8.5346   -0.3223   52.6662 C.2     1  ZINC000880838037    0.0100
     16 S16        -7.2102   -0.3215   51.5041 S.3     1  ZINC000880838037    0.1000
     17 C17        -6.7286    1.4217   51.5776 C.3     1  ZINC000880838037   -0.1500
     18 H18        -6.7477    1.7605   52.6134 H       1  ZINC000880838037    0.1200
     19 C19        -7.7076    2.2567   50.7498 C.3     1  ZINC000880838037   -0.1500
     20 C20        -5.3369    1.5823   51.0221 C.2     1  ZINC000880838037    0.5400
     21 N21        -4.3350    1.9952   51.8235 N.am    1  ZINC000880838037   -0.8400
     22 O22        -5.1185    1.3400   49.8541 O.2     1  ZINC000880838037   -0.5200
     23 N23        -8.6423    0.4916   53.6711 N.2     1  ZINC000880838037   -0.4200
     24 C24       -10.3686   -0.1533   60.1423 C.ar    1  ZINC000880838037   -0.1500
     25 C25       -11.0696    1.1762   60.2533 C.3     1  ZINC000880838037   -0.1000
     26 H26        -8.5865    0.9176   62.7273 H       1  ZINC000880838037    0.0600
     27 H27        -9.4621    0.5404   64.2305 H       1  ZINC000880838037    0.1000
     28 H28        -8.4463   -0.6999   63.4570 H       1  ZINC000880838037    0.0600
     29 H29        -9.0386   -2.5868   62.0749 H       1  ZINC000880838037    0.1300
     30 H30        -8.5703   -3.5488   59.8593 H       1  ZINC000880838037    0.1300
     31 H31        -9.2441   -2.3440   57.8233 H       1  ZINC000880838037    0.1400
     32 H32       -11.4216    0.1165   57.5348 H       1  ZINC000880838037    0.4100
     33 H33       -11.0167    1.4580   55.7067 H       1  ZINC000880838037    0.1200
     34 H34        -9.3764    2.1342   55.5640 H       1  ZINC000880838037    0.1200
     35 H35       -11.4513   -0.9033   54.5695 H       1  ZINC000880838037    0.1800
     36 H36        -7.6885    1.9179   49.7139 H       1  ZINC000880838037    0.0900
     37 H37        -8.7142    2.1406   51.1515 H       1  ZINC000880838037    0.0800
     38 H38        -7.4176    3.3065   50.7941 H       1  ZINC000880838037    0.0800
     39 H39        -3.4390    2.0974   51.4663 H       1  ZINC000880838037    0.4000
     40 H40        -4.5099    2.1901   52.7575 H       1  ZINC000880838037    0.4100
     41 H41       -12.1472    1.0167   60.2907 H       1  ZINC000880838037    0.0700
     42 H42       -10.7455    1.6830   61.1623 H       1  ZINC000880838037    0.0700
     43 H43       -10.8230    1.7903   59.3873 H       1  ZINC000880838037    0.0600
@<TRIPOS>BOND
     1     1     2    1
     2     1    26    1
     3     1    27    1
     4     1    28    1
     5     2     3    1
     6     3    24   ar
     7     3     4   ar
     8     4     5   ar
     9     4    29    1
    10     5     6   ar
    11     5    30    1
    12     6     7   ar
    13     6    31    1
    14     7     8    1
    15     7    24   ar
    16     8     9   am
    17     8    32    1
    18     9    10    2
    19     9    11    1
    20    11    12    1
    21    11    33    1
    22    11    34    1
    23    12    23    1
    24    12    13    2
    25    13    14    1
    26    13    35    1
    27    14    15    1
    28    15    16    1
    29    15    23    2
    30    16    17    1
    31    17    18    1
    32    17    19    1
    33    17    20    1
    34    19    36    1
    35    19    37    1
    36    19    38    1
    37    20    21   am
    38    20    22    2
    39    21    39    1
    40    21    40    1
    41    24    25    1
    42    25    41    1
    43    25    42    1
    44    25    43    1
@<TRIPOS>SUBSTRUCTURE
     1 ZINC000880838037        1 TEMP              0 ****  ****    0 ROOT


##########                                Name:    ZINC001347442583
##########                DOCK_Rotatable_Bonds:                   9
##########                         Heavy_Atoms:                  27
##########                    Molecular_Weight:             370.492
##########                DOCK_Rotatable_Bonds:                   9
##########                       Formal_Charge:          -0.0400009
##########                     HBond_Acceptors:                   5
##########                        HBond_Donors:                   1
##########                         Heavy_Atoms:                  27
##########                          Grid_Score:          -36.301479
##########                     Grid_vdw_energy:          -35.022640
##########                      Grid_es_energy:           -1.278838
##########           Internal_energy_repulsive:           15.196302

@<TRIPOS>MOLECULE
ZINC001347442583
 57 60 1 0 0
SMALL
USER_CHARGES


@<TRIPOS>ATOM
      1 O1         -8.5269   -0.0536   56.5914 O.2     1  ZINC001347442583   -0.5400
      2 C2         -9.1778    0.3158   57.5459 C.2     1  ZINC001347442583    0.5400
      3 C3         -9.2992    1.7865   57.8514 C.3     1  ZINC001347442583   -0.1400
      4 C4         -8.4881    2.5880   56.8312 C.3     1  ZINC001347442583   -0.1000
      5 C5         -7.0021    2.5104   57.1869 C.3     1  ZINC001347442583   -0.1100
      6 C6         -6.1817    3.2190   56.1071 C.3     1  ZINC001347442583   -0.0800
      7 C7         -4.7171    2.9368   56.3229 C.ar    1  ZINC001347442583   -0.0800
      8 C8         -4.2476    2.6522   57.5915 C.ar    1  ZINC001347442583   -0.1200
      9 C9         -2.9042    2.3933   57.7893 C.ar    1  ZINC001347442583   -0.1200
     10 C10        -2.0304    2.4187   56.7186 C.ar    1  ZINC001347442583   -0.1300
     11 C11        -2.5000    2.7024   55.4498 C.ar    1  ZINC001347442583   -0.1200
     12 C12        -3.8442    2.9570   55.2512 C.ar    1  ZINC001347442583   -0.1200
     13 N13        -9.7971   -0.5887   58.3300 N.am    1  ZINC001347442583   -0.6300
     14 C14       -10.6554   -0.4076   59.5497 C.3     1  ZINC001347442583    0.1200
     15 H15       -10.8107    0.6216   59.8731 H       1  ZINC001347442583    0.1200
     16 C16        -9.9226   -1.3299   60.5702 C.3     1  ZINC001347442583   -0.1300
     17 C17        -9.3683   -2.4749   59.6872 C.3     1  ZINC001347442583   -0.1300
     18 C18        -9.8469   -2.0881   58.2497 C.3     1  ZINC001347442583    0.1200
     19 H19        -9.2868   -2.5386   57.4303 H       1  ZINC001347442583    0.1200
     20 C20       -11.3810   -2.3623   58.2461 C.3     1  ZINC001347442583    0.1300
     21 H21       -11.5979   -3.3372   58.6828 H       1  ZINC001347442583    0.1100
     22 N22       -11.9174   -2.2774   56.8854 N.am    1  ZINC001347442583   -0.7200
     23 C23       -11.7640   -3.3114   56.0348 C.2     1  ZINC001347442583    0.5300
     24 O24       -11.1833   -4.3130   56.3962 O.2     1  ZINC001347442583   -0.5300
     25 C25       -12.3142   -3.2232   54.6345 C.3     1  ZINC001347442583   -0.1500
     26 H26       -13.3213   -3.6375   54.5886 H       1  ZINC001347442583    0.1100
     27 C27       -12.2964   -1.7562   54.1252 C.3     1  ZINC001347442583   -0.1400
     28 C28       -12.1761   -1.9771   52.5962 C.3     1  ZINC001347442583    0.0500
     29 O29       -11.3222   -3.1227   52.4489 O.3     1  ZINC001347442583   -0.3800
     30 C30       -11.3809   -3.9348   53.6316 C.3     1  ZINC001347442583    0.0700
     31 C31       -11.9408   -1.1811   59.1279 C.3     1  ZINC001347442583   -0.1400
     32 H32       -10.3466    2.0837   57.7971 H       1  ZINC001347442583    0.0900
     33 H33        -8.9175    1.9822   58.8534 H       1  ZINC001347442583    0.0900
     34 H34        -8.6456    2.1735   55.8355 H       1  ZINC001347442583    0.0700
     35 H35        -8.8117    3.6287   56.8468 H       1  ZINC001347442583    0.0700
     36 H36        -6.8328    2.9951   58.1484 H       1  ZINC001347442583    0.0600
     37 H37        -6.6971    1.4657   57.2477 H       1  ZINC001347442583    0.0600
     38 H38        -6.4813    2.8537   55.1248 H       1  ZINC001347442583    0.0700
     39 H39        -6.3568    4.2934   56.1642 H       1  ZINC001347442583    0.0700
     40 H40        -4.9303    2.6324   58.4281 H       1  ZINC001347442583    0.1200
     41 H41        -2.5373    2.1718   58.7807 H       1  ZINC001347442583    0.1200
     42 H42        -0.9807    2.2172   56.8733 H       1  ZINC001347442583    0.1200
     43 H43        -1.8173    2.7225   54.6132 H       1  ZINC001347442583    0.1200
     44 H44        -4.2112    3.1787   54.2599 H       1  ZINC001347442583    0.1200
     45 H45        -9.1091   -0.7928   61.0579 H       1  ZINC001347442583    0.0700
     46 H46       -10.6239   -1.7193   61.3082 H       1  ZINC001347442583    0.0800
     47 H47        -8.2798   -2.5057   59.7371 H       1  ZINC001347442583    0.0800
     48 H48        -9.7946   -3.4321   59.9873 H       1  ZINC001347442583    0.0800
     49 H49       -12.3829   -1.4767   56.5968 H       1  ZINC001347442583    0.4000
     50 H50       -13.2242   -1.2419   54.3760 H       1  ZINC001347442583    0.0900
     51 H51       -11.4327   -1.2160   54.5131 H       1  ZINC001347442583    0.0900
     52 H52       -13.1568   -2.1782   52.1649 H       1  ZINC001347442583    0.0700
     53 H53       -11.7249   -1.1054   52.1223 H       1  ZINC001347442583    0.0900
     54 H54       -10.3847   -4.0324   54.0629 H       1  ZINC001347442583    0.0700
     55 H55       -11.7764   -4.9199   53.3844 H       1  ZINC001347442583    0.0800
     56 H56       -12.4407   -1.5683   60.0158 H       1  ZINC001347442583    0.0900
     57 H57       -12.6183   -0.5557   58.5466 H       1  ZINC001347442583    0.0800
@<TRIPOS>BOND
     1     1     2    2
     2     2     3    1
     3     2    13   am
     4     3     4    1
     5     3    32    1
     6     3    33    1
     7     4     5    1
     8     4    34    1
     9     4    35    1
    10     5     6    1
    11     5    36    1
    12     5    37    1
    13     6     7    1
    14     6    38    1
    15     6    39    1
    16     7    12   ar
    17     7     8   ar
    18     8     9   ar
    19     8    40    1
    20     9    10   ar
    21     9    41    1
    22    10    11   ar
    23    10    42    1
    24    11    12   ar
    25    11    43    1
    26    12    44    1
    27    13    18    1
    28    13    14    1
    29    14    15    1
    30    14    31    1
    31    14    16    1
    32    16    17    1
    33    16    45    1
    34    16    46    1
    35    17    18    1
    36    17    47    1
    37    17    48    1
    38    18    19    1
    39    18    20    1
    40    20    21    1
    41    20    22    1
    42    20    31    1
    43    22    23   am
    44    22    49    1
    45    23    24    2
    46    23    25    1
    47    25    26    1
    48    25    30    1
    49    25    27    1
    50    27    28    1
    51    27    50    1
    52    27    51    1
    53    28    29    1
    54    28    52    1
    55    28    53    1
    56    29    30    1
    57    30    54    1
    58    30    55    1
    59    31    56    1
    60    31    57    1
@<TRIPOS>SUBSTRUCTURE
     1 ZINC001347442583        1 TEMP              0 ****  ****    0 ROOT


##########                                Name:    ZINC000790205345
##########                DOCK_Rotatable_Bonds:                   7
##########                         Heavy_Atoms:                  28
##########                    Molecular_Weight:             382.459
##########                DOCK_Rotatable_Bonds:                   7
##########                       Formal_Charge:          -0.0299997
##########                     HBond_Acceptors:                   6
##########                        HBond_Donors:                   0
##########                         Heavy_Atoms:                  28
##########                          Grid_Score:          -36.263412
##########                     Grid_vdw_energy:          -36.462273
##########                      Grid_es_energy:            0.198859
##########           Internal_energy_repulsive:           48.483368

@<TRIPOS>MOLECULE
ZINC000790205345
 54 56 1 0 0
SMALL
USER_CHARGES


@<TRIPOS>ATOM
      1 C1         -7.7184    2.2376   52.9900 C.3     1  ZINC000790205345   -0.1100
      2 C2         -6.3576    2.2714   52.3434 C.ar    1  ZINC000790205345   -0.1300
      3 C3         -5.4360    3.2284   52.7248 C.ar    1  ZINC000790205345   -0.0800
      4 C4         -4.1874    3.2612   52.1340 C.ar    1  ZINC000790205345   -0.2100
      5 C5         -3.8591    2.3327   51.1572 C.ar    1  ZINC000790205345    0.1300
      6 O6         -2.6316    2.3624   50.5748 O.3     1  ZINC000790205345   -0.2900
      7 C7         -2.5815    2.6832   49.1832 C.3     1  ZINC000790205345    0.0400
      8 C8         -1.4065    1.9846   48.5487 C.2     1  ZINC000790205345    0.5200
      9 O9         -0.8370    1.0942   49.1434 O.2     1  ZINC000790205345   -0.5100
     10 N10        -0.9885    2.3494   47.3204 N.am    1  ZINC000790205345   -0.6100
     11 C11        -1.6754    3.4263   46.6028 C.3     1  ZINC000790205345    0.0700
     12 C12         0.1525    1.6693   46.7029 C.3     1  ZINC000790205345    0.1800
     13 H13         0.5765    0.9561   47.4099 H       1  ZINC000790205345    0.1200
     14 C14         1.2153    2.7012   46.3202 C.3     1  ZINC000790205345   -0.1600
     15 C15        -0.3065    0.9390   45.4671 C.ar    1  ZINC000790205345   -0.0700
     16 C16        -1.5858    0.4181   45.4080 C.ar    1  ZINC000790205345   -0.1300
     17 C17        -2.0106   -0.2533   44.2759 C.ar    1  ZINC000790205345   -0.0900
     18 C18        -1.1578   -0.4047   43.2005 C.ar    1  ZINC000790205345   -0.1500
     19 C19         0.1277    0.1178   43.2565 C.ar    1  ZINC000790205345    0.1800
     20 N20         0.9944   -0.0337   42.1681 N.am    1  ZINC000790205345   -0.5700
     21 C21         2.3823    0.4493   42.1060 C.3     1  ZINC000790205345    0.0600
     22 C22         2.8585    0.0187   40.7053 C.3     1  ZINC000790205345    0.0400
     23 O23         1.7011   -0.6548   40.1308 O.3     1  ZINC000790205345   -0.3200
     24 C24         0.6969   -0.6477   41.0147 C.2     1  ZINC000790205345    0.6400
     25 O25        -0.3885   -1.1453   40.7891 O.2     1  ZINC000790205345   -0.5000
     26 C26         0.5495    0.7957   44.3925 C.ar    1  ZINC000790205345   -0.1400
     27 C27        -4.7859    1.3729   50.7761 C.ar    1  ZINC000790205345   -0.1500
     28 C28        -6.0308    1.3411   51.3737 C.ar    1  ZINC000790205345   -0.0500
     29 C29        -7.0378    0.2988   50.9607 C.3     1  ZINC000790205345   -0.1200
     30 H30        -7.6857    1.5987   53.8724 H       1  ZINC000790205345    0.0700
     31 H31        -8.0067    3.2473   53.2827 H       1  ZINC000790205345    0.0600
     32 H32        -8.4472    1.8426   52.2822 H       1  ZINC000790205345    0.0700
     33 H33        -5.6922    3.9515   53.4851 H       1  ZINC000790205345    0.1300
     34 H34        -3.4679    4.0095   52.4320 H       1  ZINC000790205345    0.1300
     35 H35        -3.5026    2.3553   48.7013 H       1  ZINC000790205345    0.1000
     36 H36        -2.4720    3.7609   49.0624 H       1  ZINC000790205345    0.0900
     37 H37        -1.2753    4.3886   46.9222 H       1  ZINC000790205345    0.0600
     38 H38        -1.5193    3.3057   45.5308 H       1  ZINC000790205345    0.0800
     39 H39        -2.7424    3.3858   46.8215 H       1  ZINC000790205345    0.0700
     40 H40         0.7914    3.4143   45.6132 H       1  ZINC000790205345    0.0600
     41 H41         1.5475    3.2293   47.2140 H       1  ZINC000790205345    0.0700
     42 H42         2.0644    2.1950   45.8608 H       1  ZINC000790205345    0.0800
     43 H43        -2.2547    0.5352   46.2478 H       1  ZINC000790205345    0.1300
     44 H44        -3.0103   -0.6597   44.2331 H       1  ZINC000790205345    0.1300
     45 H45        -1.4900   -0.9293   42.3169 H       1  ZINC000790205345    0.1300
     46 H46         2.4149    1.5343   42.2047 H       1  ZINC000790205345    0.1000
     47 H47         2.9876   -0.0248   42.8786 H       1  ZINC000790205345    0.1000
     48 H48         3.1284    0.8902   40.1088 H       1  ZINC000790205345    0.1100
     49 H49         3.7010   -0.6685   40.7826 H       1  ZINC000790205345    0.1100
     50 H50         1.5485    1.2035   44.4390 H       1  ZINC000790205345    0.1600
     51 H51        -4.5329    0.6490   50.0157 H       1  ZINC000790205345    0.1300
     52 H52        -6.9182   -0.5885   51.5824 H       1  ZINC000790205345    0.0700
     53 H53        -8.0449    0.6968   51.0855 H       1  ZINC000790205345    0.0700
     54 H54        -6.8787    0.0340   49.9153 H       1  ZINC000790205345    0.0700
@<TRIPOS>BOND
     1     1     2    1
     2     1    30    1
     3     1    31    1
     4     1    32    1
     5     2    28   ar
     6     2     3   ar
     7     3     4   ar
     8     3    33    1
     9     4     5   ar
    10     4    34    1
    11     5     6    1
    12     5    27   ar
    13     6     7    1
    14     7     8    1
    15     7    35    1
    16     7    36    1
    17     8     9    2
    18     8    10   am
    19    10    11    1
    20    10    12    1
    21    11    37    1
    22    11    38    1
    23    11    39    1
    24    12    13    1
    25    12    14    1
    26    12    15    1
    27    14    40    1
    28    14    41    1
    29    14    42    1
    30    15    26   ar
    31    15    16   ar
    32    16    17   ar
    33    16    43    1
    34    17    18   ar
    35    17    44    1
    36    18    19   ar
    37    18    45    1
    38    19    20    1
    39    19    26   ar
    40    20    24   am
    41    20    21    1
    42    21    22    1
    43    21    46    1
    44    21    47    1
    45    22    23    1
    46    22    48    1
    47    22    49    1
    48    23    24    1
    49    24    25    2
    50    26    50    1
    51    27    28   ar
    52    27    51    1
    53    28    29    1
    54    29    52    1
    55    29    53    1
    56    29    54    1
@<TRIPOS>SUBSTRUCTURE
     1 ZINC000790205345        1 TEMP              0 ****  ****    0 ROOT


##########                                Name:    ZINC000000992968
##########                DOCK_Rotatable_Bonds:                   8
##########                         Heavy_Atoms:                  27
##########                    Molecular_Weight:             384.772
##########                DOCK_Rotatable_Bonds:                   8
##########                       Formal_Charge:           0.0199999
##########                     HBond_Acceptors:                   7
##########                        HBond_Donors:                   0
##########                         Heavy_Atoms:                  27
##########                          Grid_Score:          -36.262245
##########                     Grid_vdw_energy:          -35.716908
##########                      Grid_es_energy:           -0.545338
##########           Internal_energy_repulsive:            8.374222

@<TRIPOS>MOLECULE
ZINC000000992968
 40 42 1 0 0
SMALL
USER_CHARGES


@<TRIPOS>ATOM
      1 O1        -13.1817   -0.2648   51.9658 O.2     1  ZINC000000992968   -0.4600
      2 C2        -13.1055   -1.0677   51.0554 C.2     1  ZINC000000992968    0.5600
      3 O3        -12.4038   -2.2087   51.2188 O.3     1  ZINC000000992968   -0.2900
      4 C4        -12.3658   -2.7613   52.4576 C.ar    1  ZINC000000992968    0.1200
      5 C5        -11.1633   -3.2400   52.9662 C.ar    1  ZINC000000992968   -0.1300
      6 C6        -11.1195   -3.8016   54.2217 C.ar    1  ZINC000000992968   -0.0400
      7 C7        -12.2884   -3.8903   54.9876 C.ar    1  ZINC000000992968   -0.1600
      8 C8        -12.2473   -4.4885   56.3286 C.2     1  ZINC000000992968    0.4000
      9 O9        -13.2557   -4.9533   56.8165 O.2     1  ZINC000000992968   -0.4200
     10 C10       -10.9520   -4.5247   57.0981 C.3     1  ZINC000000992968    0.0200
     11 O11       -11.1858   -4.0801   58.4604 O.3     1  ZINC000000992968   -0.3300
     12 C12       -10.1003   -3.8724   59.2309 C.2     1  ZINC000000992968    0.5100
     13 O13        -9.1342   -4.6017   59.1283 O.2     1  ZINC000000992968   -0.5000
     14 C14       -10.0849   -2.7584   60.1999 C.ar    1  ZINC000000992968   -0.1300
     15 C15       -11.1686   -1.8806   60.2766 C.ar    1  ZINC000000992968   -0.0500
     16 C16       -11.1484   -0.8426   61.1839 C.ar    1  ZINC000000992968   -0.1200
     17 C17       -10.0561   -0.6691   62.0180 C.ar    1  ZINC000000992968    0.0000
     18 Cl18      -10.0380    0.6406   63.1573 Cl      1  ZINC000000992968   -0.0500
     19 C19        -8.9785   -1.5366   61.9470 C.ar    1  ZINC000000992968   -0.1200
     20 C20        -8.9891   -2.5816   61.0476 C.ar    1  ZINC000000992968   -0.0400
     21 C21       -13.4965   -3.4065   54.4709 C.ar    1  ZINC000000992968   -0.0600
     22 C22       -13.5284   -2.8418   53.2163 C.ar    1  ZINC000000992968   -0.1200
     23 C23       -13.7804   -0.7989   49.7838 C.2     1  ZINC000000992968   -0.0700
     24 C24       -14.5146    0.3139   49.4836 C.2     1  ZINC000000992968   -0.0900
     25 C25       -14.9722    0.1522   48.1672 C.2     1  ZINC000000992968   -0.2300
     26 C26       -14.5040   -1.0368   47.7262 C.2     1  ZINC000000992968    0.0200
     27 O27       -13.7817   -1.6040   48.7009 O.3     1  ZINC000000992968   -0.1500
     28 H28       -10.2623   -3.1711   52.3748 H       1  ZINC000000992968    0.1400
     29 H29       -10.1852   -4.1737   54.6156 H       1  ZINC000000992968    0.1500
     30 H30       -10.5648   -5.5435   57.1099 H       1  ZINC000000992968    0.1100
     31 H31       -10.2270   -3.8659   56.6203 H       1  ZINC000000992968    0.1100
     32 H32       -12.0204   -2.0145   59.6263 H       1  ZINC000000992968    0.1500
     33 H33       -11.9858   -0.1632   61.2441 H       1  ZINC000000992968    0.1500
     34 H34        -8.1300   -1.3963   62.6003 H       1  ZINC000000992968    0.1500
     35 H35        -8.1484   -3.2574   60.9935 H       1  ZINC000000992968    0.1500
     36 H36       -14.4009   -3.4728   55.0575 H       1  ZINC000000992968    0.1400
     37 H37       -14.4597   -2.4680   52.8170 H       1  ZINC000000992968    0.1400
     38 H38       -14.7056    1.1549   50.1337 H       1  ZINC000000992968    0.1700
     39 H39       -15.5838    0.8470   47.6108 H       1  ZINC000000992968    0.1700
     40 H40       -14.6801   -1.4580   46.7475 H       1  ZINC000000992968    0.2200
@<TRIPOS>BOND
     1     1     2    2
     2     2     3    1
     3     2    23    1
     4     3     4    1
     5     4    22   ar
     6     4     5   ar
     7     5     6   ar
     8     5    28    1
     9     6     7   ar
    10     6    29    1
    11     7     8    1
    12     7    21   ar
    13     8     9    2
    14     8    10    1
    15    10    11    1
    16    10    30    1
    17    10    31    1
    18    11    12    1
    19    12    13    2
    20    12    14    1
    21    14    20   ar
    22    14    15   ar
    23    15    16   ar
    24    15    32    1
    25    16    17   ar
    26    16    33    1
    27    17    18    1
    28    17    19   ar
    29    19    20   ar
    30    19    34    1
    31    20    35    1
    32    21    22   ar
    33    21    36    1
    34    22    37    1
    35    23    27    1
    36    23    24    2
    37    24    25    1
    38    24    38    1
    39    25    26    2
    40    25    39    1
    41    26    27    1
    42    26    40    1
@<TRIPOS>SUBSTRUCTURE
     1 ZINC000000992968        1 TEMP              0 ****  ****    0 ROOT


##########                                Name:    ZINC000744839011
##########                DOCK_Rotatable_Bonds:                  10
##########                         Heavy_Atoms:                  24
##########                    Molecular_Weight:              378.83
##########                DOCK_Rotatable_Bonds:                  10
##########                       Formal_Charge:           0.0300002
##########                     HBond_Acceptors:                   9
##########                        HBond_Donors:                   0
##########                         Heavy_Atoms:                  24
##########                          Grid_Score:          -36.261570
##########                     Grid_vdw_energy:          -35.130299
##########                      Grid_es_energy:           -1.131273
##########           Internal_energy_repulsive:           11.914921

@<TRIPOS>MOLECULE
ZINC000744839011
 43 43 1 0 0
SMALL
USER_CHARGES


@<TRIPOS>ATOM
      1 C1         -8.3533    0.7315   64.5367 C.3     1  ZINC000744839011    0.0400
      2 O2         -8.4745   -0.2801   63.5021 O.3     1  ZINC000744839011   -0.3600
      3 C3         -9.6765   -0.4045   62.9060 C.2     1  ZINC000744839011    0.5100
      4 O4        -10.6683    0.0552   63.4366 O.2     1  ZINC000744839011   -0.5000
      5 C5         -9.7883   -1.0987   61.6098 C.ar    1  ZINC000744839011   -0.1600
      6 C6         -9.0594   -2.2680   61.3759 C.ar    1  ZINC000744839011   -0.0100
      7 C7         -9.1667   -2.9139   60.1643 C.ar    1  ZINC000744839011   -0.2100
      8 C8         -9.9984   -2.4049   59.1743 C.ar    1  ZINC000744839011    0.1800
      9 O9        -10.1011   -3.0446   57.9817 O.3     1  ZINC000744839011   -0.2900
     10 C10       -10.6919   -4.3457   57.9923 C.3     1  ZINC000744839011    0.0500
     11 C11       -12.0562   -4.2919   57.3018 C.3     1  ZINC000744839011    0.0600
     12 O12       -11.8688   -4.2423   55.8628 O.3     1  ZINC000744839011   -0.3400
     13 C13       -12.9740   -4.2868   55.1024 C.2     1  ZINC000744839011    0.5000
     14 O14       -14.0597   -4.3987   55.6207 O.2     1  ZINC000744839011   -0.4900
     15 C15       -12.8607   -4.1973   53.6024 C.3     1  ZINC000744839011   -0.6400
     16 S16       -11.3770   -3.2505   53.1635 S.o2    1  ZINC000744839011    2.4400
     17 O17       -10.2557   -3.8432   53.8041 O.2     1  ZINC000744839011   -0.9100
     18 O18       -11.3556   -3.0699   51.7542 O.2     1  ZINC000744839011   -0.9100
     19 C19       -11.7097   -1.6483   53.9463 C.3     1  ZINC000744839011   -0.5700
     20 C20       -10.5344   -0.7023   53.6914 C.3     1  ZINC000744839011   -0.1500
     21 C21       -12.9861   -1.0468   53.3547 C.3     1  ZINC000744839011   -0.1500
     22 C22       -10.7265   -1.2415   59.4026 C.ar    1  ZINC000744839011   -0.0800
     23 Cl23      -11.7644   -0.6108   58.1620 Cl      1  ZINC000744839011   -0.0400
     24 C24       -10.6285   -0.5922   60.6135 C.ar    1  ZINC000744839011   -0.0100
     25 H25        -8.5734    1.7118   64.1140 H       1  ZINC000744839011    0.0700
     26 H26        -9.0577    0.5158   65.3401 H       1  ZINC000744839011    0.0700
     27 H27        -7.3378    0.7263   64.9327 H       1  ZINC000744839011    0.1100
     28 H28        -8.4123   -2.6644   62.1444 H       1  ZINC000744839011    0.1500
     29 H29        -8.6032   -3.8172   59.9831 H       1  ZINC000744839011    0.1500
     30 H30       -10.0437   -5.0435   57.4622 H       1  ZINC000744839011    0.0900
     31 H31       -10.8190   -4.6787   59.0224 H       1  ZINC000744839011    0.1000
     32 H32       -12.6309   -5.1805   57.5630 H       1  ZINC000744839011    0.1100
     33 H33       -12.5942   -3.4021   57.6290 H       1  ZINC000744839011    0.0900
     34 H34       -12.7888   -5.2007   53.1828 H       1  ZINC000744839011    0.1700
     35 H35       -13.7424   -3.6980   53.2006 H       1  ZINC000744839011    0.1700
     36 H36       -11.8374   -1.7878   55.0198 H       1  ZINC000744839011    0.1400
     37 H37       -10.7342    0.2604   54.1617 H       1  ZINC000744839011    0.0900
     38 H38        -9.6251   -1.1308   54.1129 H       1  ZINC000744839011    0.0700
     39 H39       -10.4066   -0.5627   52.6179 H       1  ZINC000744839011    0.0800
     40 H40       -13.8233   -1.7206   53.5364 H       1  ZINC000744839011    0.0800
     41 H41       -13.1858   -0.0840   53.8251 H       1  ZINC000744839011    0.0900
     42 H42       -12.8583   -0.9071   52.2814 H       1  ZINC000744839011    0.0800
     43 H43       -11.1937    0.3109   60.7903 H       1  ZINC000744839011    0.1600
@<TRIPOS>BOND
     1     1     2    1
     2     1    25    1
     3     1    26    1
     4     1    27    1
     5     2     3    1
     6     3     4    2
     7     3     5    1
     8     5    24   ar
     9     5     6   ar
    10     6     7   ar
    11     6    28    1
    12     7     8   ar
    13     7    29    1
    14     8     9    1
    15     8    22   ar
    16     9    10    1
    17    10    11    1
    18    10    30    1
    19    10    31    1
    20    11    12    1
    21    11    32    1
    22    11    33    1
    23    12    13    1
    24    13    14    2
    25    13    15    1
    26    15    16    1
    27    15    34    1
    28    15    35    1
    29    16    17    2
    30    16    18    2
    31    16    19    1
    32    19    20    1
    33    19    21    1
    34    19    36    1
    35    20    37    1
    36    20    38    1
    37    20    39    1
    38    21    40    1
    39    21    41    1
    40    21    42    1
    41    22    23    1
    42    22    24   ar
    43    24    43    1
@<TRIPOS>SUBSTRUCTURE
     1 ZINC000744839011        1 TEMP              0 ****  ****    0 ROOT


##########                                Name:    ZINC000751548479
##########                DOCK_Rotatable_Bonds:                   9
##########                         Heavy_Atoms:                  27
##########                    Molecular_Weight:             389.407
##########                DOCK_Rotatable_Bonds:                   9
##########                       Formal_Charge:           0.0199995
##########                     HBond_Acceptors:                   9
##########                        HBond_Donors:                   2
##########                         Heavy_Atoms:                  27
##########                          Grid_Score:          -36.252960
##########                     Grid_vdw_energy:          -35.252888
##########                      Grid_es_energy:           -1.000073
##########           Internal_energy_repulsive:           13.064569

@<TRIPOS>MOLECULE
ZINC000751548479
 43 44 1 0 0
SMALL
USER_CHARGES


@<TRIPOS>ATOM
      1 C1          0.1398   -0.2486   39.4765 C.3     1  ZINC000751548479   -0.1600
      2 C2          1.1823   -0.6258   40.5310 C.3     1  ZINC000751548479    0.0800
      3 O3          1.3651    0.4839   41.4494 O.3     1  ZINC000751548479   -0.3600
      4 C4          0.5307    0.5481   42.5044 C.2     1  ZINC000751548479    0.6500
      5 O5         -0.3693   -0.2604   42.6171 O.2     1  ZINC000751548479   -0.5400
      6 N6          0.6940    1.5090   43.4351 N.am    1  ZINC000751548479   -0.6500
      7 C7         -0.1712    1.5757   44.5292 C.ar    1  ZINC000751548479    0.2000
      8 C8         -0.1534    0.5767   45.4917 C.ar    1  ZINC000751548479   -0.1000
      9 C9         -1.0081    0.6410   46.5739 C.ar    1  ZINC000751548479   -0.1000
     10 C10        -1.8925    1.7059   46.7082 C.ar    1  ZINC000751548479    0.1300
     11 N11        -2.7552    1.7620   47.8085 N.am    1  ZINC000751548479   -1.0500
     12 S12        -2.2212    2.3809   49.2487 S.o2    1  ZINC000751548479    2.6800
     13 O13        -1.2292    1.4834   49.7279 O.2     1  ZINC000751548479   -0.9500
     14 O14        -1.9766    3.7627   49.0257 O.2     1  ZINC000751548479   -0.9400
     15 C15        -3.5646    2.2905   50.3854 C.2     1  ZINC000751548479   -0.7500
     16 C16        -4.5729    1.4609   50.1553 C.2     1  ZINC000751548479    0.0700
     17 C17        -5.6988    1.3838   51.1095 C.ar    1  ZINC000751548479   -0.1100
     18 C18        -6.6017    0.3218   51.0427 C.ar    1  ZINC000751548479   -0.0600
     19 C19        -7.6506    0.2543   51.9359 C.ar    1  ZINC000751548479   -0.1600
     20 C20        -7.8089    1.2389   52.8981 C.ar    1  ZINC000751548479    0.1200
     21 F21        -8.8382    1.1683   53.7703 F       1  ZINC000751548479   -0.1300
     22 C22        -6.9150    2.2953   52.9690 C.ar    1  ZINC000751548479   -0.1600
     23 C23        -5.8596    2.3696   52.0841 C.ar    1  ZINC000751548479   -0.0500
     24 C24        -1.9212    2.7111   45.7561 C.ar    1  ZINC000751548479   -0.0600
     25 C25        -1.0565    2.6558   44.6610 C.ar    1  ZINC000751548479   -0.0300
     26 C26        -1.0799    3.6916   43.6725 C.1     1  ZINC000751548479    0.2500
     27 N27        -1.0986    4.5134   42.8884 N.1     1  ZINC000751548479   -0.4000
     28 H28         0.4816    0.6271   38.9248 H       1  ZINC000751548479    0.0700
     29 H29         0.0026   -1.0816   38.7871 H       1  ZINC000751548479    0.0900
     30 H30        -0.8073   -0.0226   39.9664 H       1  ZINC000751548479    0.0700
     31 H31         0.8405   -1.5016   41.0827 H       1  ZINC000751548479    0.0800
     32 H32         2.1293   -0.8518   40.0411 H       1  ZINC000751548479    0.0800
     33 H33         1.4125    2.1544   43.3450 H       1  ZINC000751548479    0.4200
     34 H34         0.5304   -0.2535   45.3938 H       1  ZINC000751548479    0.1600
     35 H35        -0.9900   -0.1398   47.3199 H       1  ZINC000751548479    0.1700
     36 H36        -3.6660    1.4383   47.7277 H       1  ZINC000751548479    0.4300
     37 H37        -3.5667    2.9109   51.2692 H       1  ZINC000751548479    0.1700
     38 H38        -4.5714    0.8415   49.2705 H       1  ZINC000751548479    0.1500
     39 H39        -6.4796   -0.4457   50.2927 H       1  ZINC000751548479    0.1400
     40 H40        -8.3499   -0.5672   51.8851 H       1  ZINC000751548479    0.1400
     41 H41        -7.0427    3.0599   53.7210 H       1  ZINC000751548479    0.1400
     42 H42        -5.1633    3.1931   52.1404 H       1  ZINC000751548479    0.1400
     43 H43        -2.6086    3.5373   45.8618 H       1  ZINC000751548479    0.1500
@<TRIPOS>BOND
     1     1     2    1
     2     1    28    1
     3     1    29    1
     4     1    30    1
     5     2     3    1
     6     2    31    1
     7     2    32    1
     8     3     4    1
     9     4     5    2
    10     4     6   am
    11     6     7    1
    12     6    33    1
    13     7    25   ar
    14     7     8   ar
    15     8     9   ar
    16     8    34    1
    17     9    10   ar
    18     9    35    1
    19    10    11    1
    20    10    24   ar
    21    11    12   am
    22    11    36    1
    23    12    13    2
    24    12    14    2
    25    12    15    1
    26    15    16    2
    27    15    37    1
    28    16    17    1
    29    16    38    1
    30    17    23   ar
    31    17    18   ar
    32    18    19   ar
    33    18    39    1
    34    19    20   ar
    35    19    40    1
    36    20    21    1
    37    20    22   ar
    38    22    23   ar
    39    22    41    1
    40    23    42    1
    41    24    25   ar
    42    24    43    1
    43    25    26    1
    44    26    27    3
@<TRIPOS>SUBSTRUCTURE
     1 ZINC000751548479        1 TEMP              0 ****  ****    0 ROOT


##########                                Name:    ZINC000906038034
##########                DOCK_Rotatable_Bonds:                   5
##########                         Heavy_Atoms:                  23
##########                    Molecular_Weight:             387.428
##########                DOCK_Rotatable_Bonds:                   5
##########                       Formal_Charge:         -0.00999987
##########                     HBond_Acceptors:                  12
##########                        HBond_Donors:                   0
##########                         Heavy_Atoms:                  23
##########                          Grid_Score:          -36.251148
##########                     Grid_vdw_energy:          -36.575253
##########                      Grid_es_energy:            0.324103
##########           Internal_energy_repulsive:            5.643876

@<TRIPOS>MOLECULE
ZINC000906038034
 35 36 1 0 0
SMALL
USER_CHARGES


@<TRIPOS>ATOM
      1 C1         -7.0356   -0.0619   51.1166 C.3     1  ZINC000906038034    0.1000
      2 N2         -8.1247   -0.3574   52.0508 N.pl3   1  ZINC000906038034   -0.3700
      3 C3         -8.5329    0.4329   53.0673 C.2     1  ZINC000906038034    0.0600
      4 C4         -9.5567   -0.1865   53.6930 C.2     1  ZINC000906038034   -0.2500
      5 C5         -9.7889   -1.4110   53.0332 C.2     1  ZINC000906038034    0.1200
      6 C6        -10.8211   -2.4090   53.3879 C.2     1  ZINC000906038034    0.1500
      7 N7        -11.6625   -2.3072   54.3766 N.2     1  ZINC000906038034   -0.4300
      8 C8        -12.5126   -3.2952   54.5411 C.2     1  ZINC000906038034    0.0600
      9 C9        -13.5354   -3.2949   55.6478 C.3     1  ZINC000906038034   -0.5300
     10 S10       -13.2371   -4.7066   56.7473 S.o2    1  ZINC000906038034    2.4200
     11 O11       -14.0861   -4.5855   57.8802 O.2     1  ZINC000906038034   -0.9100
     12 O12       -13.2768   -5.8985   55.9746 O.2     1  ZINC000906038034   -0.9200
     13 C13       -11.5257   -4.4162   57.2739 C.3     1  ZINC000906038034   -0.6100
     14 C14       -11.4916   -3.2728   58.2899 C.3     1  ZINC000906038034   -0.4500
     15 S15        -9.8151   -3.1124   58.9639 S.o     1  ZINC000906038034    1.3300
     16 O16        -9.4757   -4.2947   59.6756 O.2     1  ZINC000906038034   -0.7600
     17 C17        -9.9740   -1.7306   60.1283 C.3     1  ZINC000906038034    0.1200
     18 F18       -10.9189   -2.0526   61.1083 F       1  ZINC000906038034   -0.1900
     19 F19        -8.7370   -1.4876   60.7351 F       1  ZINC000906038034   -0.1700
     20 F20       -10.3883   -0.5856   59.4394 F       1  ZINC000906038034   -0.1600
     21 C21       -12.4144   -4.3004   53.6656 C.2     1  ZINC000906038034   -0.2300
     22 S22       -11.1151   -3.9228   52.5361 S.3     1  ZINC000906038034    0.1600
     23 N23        -8.9268   -1.5057   52.0408 N.2     1  ZINC000906038034   -0.2400
     24 H24        -7.4306    0.4811   50.2580 H       1  ZINC000906038034    0.0800
     25 H25        -6.2829    0.5475   51.6169 H       1  ZINC000906038034    0.0900
     26 H26        -6.5828   -0.9945   50.7797 H       1  ZINC000906038034    0.0900
     27 H27        -8.1136    1.3920   53.3333 H       1  ZINC000906038034    0.1800
     28 H28       -10.1006    0.1889   54.5471 H       1  ZINC000906038034    0.1600
     29 H29       -13.4555   -2.3683   56.2162 H       1  ZINC000906038034    0.1500
     30 H30       -14.5346   -3.3731   55.2192 H       1  ZINC000906038034    0.1600
     31 H31       -11.1280   -5.3216   57.7324 H       1  ZINC000906038034    0.1500
     32 H32       -10.9190   -4.1510   56.4080 H       1  ZINC000906038034    0.1500
     33 H33       -11.7765   -2.3422   57.7992 H       1  ZINC000906038034    0.1600
     34 H34       -12.1900   -3.4851   59.0994 H       1  ZINC000906038034    0.1300
     35 H35       -13.0283   -5.1889   53.6504 H       1  ZINC000906038034    0.1900
@<TRIPOS>BOND
     1     1     2    1
     2     1    24    1
     3     1    25    1
     4     1    26    1
     5     2    23    1
     6     2     3    1
     7     3     4    2
     8     3    27    1
     9     4     5    1
    10     4    28    1
    11     5     6    1
    12     5    23    2
    13     6    22    1
    14     6     7    2
    15     7     8    1
    16     8     9    1
    17     8    21    2
    18     9    10    1
    19     9    29    1
    20     9    30    1
    21    10    11    2
    22    10    12    2
    23    10    13    1
    24    13    14    1
    25    13    31    1
    26    13    32    1
    27    14    15    1
    28    14    33    1
    29    14    34    1
    30    15    16    2
    31    15    17    1
    32    17    18    1
    33    17    19    1
    34    17    20    1
    35    21    22    1
    36    21    35    1
@<TRIPOS>SUBSTRUCTURE
     1 ZINC000906038034        1 TEMP              0 ****  ****    0 ROOT


##########                                Name:    ZINC000583220082
##########                DOCK_Rotatable_Bonds:                   9
##########                         Heavy_Atoms:                  29
##########                    Molecular_Weight:             417.492
##########                DOCK_Rotatable_Bonds:                   9
##########                       Formal_Charge:          -0.0400006
##########                     HBond_Acceptors:                  11
##########                        HBond_Donors:                   3
##########                         Heavy_Atoms:                  29
##########                          Grid_Score:          -36.232098
##########                     Grid_vdw_energy:          -35.906464
##########                      Grid_es_energy:           -0.325635
##########           Internal_energy_repulsive:           20.776880

@<TRIPOS>MOLECULE
ZINC000583220082
 52 54 1 0 0
SMALL
USER_CHARGES


@<TRIPOS>ATOM
      1 C1        -13.7549   -2.0746   51.1032 C.3     1  ZINC000583220082    0.0800
      2 N2        -14.4052   -0.7701   51.2500 N.am    1  ZINC000583220082   -0.6300
      3 C3        -13.8299    0.4121   50.6040 C.3     1  ZINC000583220082    0.0800
      4 C4        -15.5330   -0.6577   51.9795 C.2     1  ZINC000583220082    0.5100
      5 O5        -16.0707    0.4225   52.1022 O.2     1  ZINC000583220082   -0.5300
      6 C6        -16.1258   -1.8742   52.6425 C.3     1  ZINC000583220082   -0.1000
      7 C7        -15.2361   -2.3117   53.7774 C.ar    1  ZINC000583220082   -0.0800
      8 C8        -15.2572   -3.6274   54.2027 C.ar    1  ZINC000583220082   -0.0800
      9 C9        -14.4432   -4.0317   55.2425 C.ar    1  ZINC000583220082   -0.1400
     10 C10       -13.6021   -3.1150   55.8609 C.ar    1  ZINC000583220082    0.1400
     11 N11       -12.7768   -3.5208   56.9129 N.am    1  ZINC000583220082   -0.6400
     12 C12       -11.4837   -3.8196   56.6783 C.2     1  ZINC000583220082    0.5100
     13 O13       -11.0360   -3.7362   55.5532 O.2     1  ZINC000583220082   -0.4900
     14 C14       -10.6016   -4.2533   57.8029 C.2     1  ZINC000583220082    0.5100
     15 O15       -10.5600   -5.4225   58.1253 O.2     1  ZINC000583220082   -0.5100
     16 N16        -9.8516   -3.3461   58.4594 N.am    1  ZINC000583220082   -0.5800
     17 C17        -9.8917   -1.9233   58.0889 C.3     1  ZINC000583220082    0.0600
     18 C18       -10.1449   -1.0975   59.3546 C.3     1  ZINC000583220082    0.0300
     19 N19        -9.1442   -1.4466   60.3717 N.3     1  ZINC000583220082   -0.4300
     20 C20        -9.2388   -0.6093   61.4679 C.2     1  ZINC000583220082    0.2900
     21 N21        -9.7204    0.6154   61.5001 N.2     1  ZINC000583220082   -0.5700
     22 C22        -9.7098    1.2264   62.6668 C.2     1  ZINC000583220082    0.5400
     23 N23       -10.1981    2.5249   62.8059 N.pl3   1  ZINC000583220082   -0.8200
     24 N24        -9.2259    0.5727   63.6892 N.2     1  ZINC000583220082   -0.5500
     25 S25        -8.7587   -0.9463   63.0876 S.3     1  ZINC000583220082    0.2000
     26 C26        -9.2613   -2.8548   60.7732 C.3     1  ZINC000583220082    0.0500
     27 C27        -8.9763   -3.7517   59.5696 C.3     1  ZINC000583220082    0.1100
     28 C28       -13.5832   -1.7941   55.4308 C.ar    1  ZINC000583220082   -0.1200
     29 C29       -14.3963   -1.3978   54.3874 C.ar    1  ZINC000583220082   -0.0800
     30 H30       -13.0315   -2.2125   51.9069 H       1  ZINC000583220082    0.0500
     31 H31       -14.5063   -2.8628   51.1515 H       1  ZINC000583220082    0.0800
     32 H32       -13.2429   -2.1192   50.1419 H       1  ZINC000583220082    0.0700
     33 H33       -12.9273    0.1275   50.0631 H       1  ZINC000583220082    0.0800
     34 H34       -14.5538    0.8334   49.9065 H       1  ZINC000583220082    0.0600
     35 H35       -13.5804    1.1549   51.3616 H       1  ZINC000583220082    0.0600
     36 H36       -17.1154   -1.6312   53.0295 H       1  ZINC000583220082    0.1000
     37 H37       -16.2087   -2.6809   51.9141 H       1  ZINC000583220082    0.1000
     38 H38       -15.9112   -4.3395   53.7215 H       1  ZINC000583220082    0.1300
     39 H39       -14.4606   -5.0592   55.5746 H       1  ZINC000583220082    0.1300
     40 H40       -13.1346   -3.5874   57.8121 H       1  ZINC000583220082    0.4200
     41 H41        -8.9384   -1.6331   57.6470 H       1  ZINC000583220082    0.0900
     42 H42       -10.6966   -1.7537   57.3738 H       1  ZINC000583220082    0.1700
     43 H43       -10.0682   -0.0363   59.1180 H       1  ZINC000583220082    0.1100
     44 H44       -11.1425   -1.3141   59.7366 H       1  ZINC000583220082    0.0700
     45 H45       -10.0697    3.1702   62.0932 H       1  ZINC000583220082    0.4200
     46 H46       -10.6661    2.7829   63.6154 H       1  ZINC000583220082    0.4200
     47 H47        -8.5435   -3.0680   61.5654 H       1  ZINC000583220082    0.1100
     48 H48       -10.2712   -3.0469   61.1354 H       1  ZINC000583220082    0.0600
     49 H49        -9.1735   -4.7910   59.8325 H       1  ZINC000583220082    0.1100
     50 H50        -7.9352   -3.6387   59.2671 H       1  ZINC000583220082    0.0900
     51 H51       -12.9305   -1.0790   55.9093 H       1  ZINC000583220082    0.1400
     52 H52       -14.3821   -0.3712   54.0524 H       1  ZINC000583220082    0.1300
@<TRIPOS>BOND
     1     1     2    1
     2     1    30    1
     3     1    31    1
     4     1    32    1
     5     2     3    1
     6     2     4   am
     7     3    33    1
     8     3    34    1
     9     3    35    1
    10     4     5    2
    11     4     6    1
    12     6     7    1
    13     6    36    1
    14     6    37    1
    15     7    29   ar
    16     7     8   ar
    17     8     9   ar
    18     8    38    1
    19     9    10   ar
    20     9    39    1
    21    10    11    1
    22    10    28   ar
    23    11    12   am
    24    11    40    1
    25    12    13    2
    26    12    14    1
    27    14    15    2
    28    14    16   am
    29    16    27    1
    30    16    17    1
    31    17    18    1
    32    17    41    1
    33    17    42    1
    34    18    19    1
    35    18    43    1
    36    18    44    1
    37    19    20    1
    38    19    26    1
    39    20    25    1
    40    20    21    2
    41    21    22    1
    42    22    23    1
    43    22    24    2
    44    23    45    1
    45    23    46    1
    46    24    25    1
    47    26    27    1
    48    26    47    1
    49    26    48    1
    50    27    49    1
    51    27    50    1
    52    28    29   ar
    53    28    51    1
    54    29    52    1
@<TRIPOS>SUBSTRUCTURE
     1 ZINC000583220082        1 TEMP              0 ****  ****    0 ROOT


##########                                Name:    ZINC000011157684
##########                DOCK_Rotatable_Bonds:                   7
##########                         Heavy_Atoms:                  25
##########                    Molecular_Weight:             374.866
##########                DOCK_Rotatable_Bonds:                   7
##########                       Formal_Charge:           0.0400001
##########                     HBond_Acceptors:                   6
##########                        HBond_Donors:                   2
##########                         Heavy_Atoms:                  25
##########                          Grid_Score:          -36.188084
##########                     Grid_vdw_energy:          -35.678394
##########                      Grid_es_energy:           -0.509689
##########           Internal_energy_repulsive:            7.955674

@<TRIPOS>MOLECULE
ZINC000011157684
 41 43 1 0 0
SMALL
USER_CHARGES


@<TRIPOS>ATOM
      1 O1        -10.0093   -4.9150   59.1398 O.2     1  ZINC000011157684   -0.5200
      2 C2         -9.6847   -3.7485   59.0694 C.2     1  ZINC000011157684    0.5100
      3 C3         -8.8548   -3.1300   60.1647 C.3     1  ZINC000011157684    0.1000
      4 N4         -8.8972   -1.6705   60.0445 N.pl3   1  ZINC000011157684   -0.7300
      5 C5         -9.0853   -0.8799   61.1833 C.ar    1  ZINC000011157684    0.2200
      6 C6         -8.5983   -1.3039   62.4119 C.ar    1  ZINC000011157684   -0.1600
      7 C7         -8.7847   -0.5215   63.5354 C.ar    1  ZINC000011157684   -0.0900
      8 C8         -9.4572    0.6845   63.4369 C.ar    1  ZINC000011157684    0.0500
      9 F9         -9.6386    1.4475   64.5371 F       1  ZINC000011157684   -0.1400
     10 C10        -9.9439    1.1105   62.2124 C.ar    1  ZINC000011157684   -0.0900
     11 C11        -9.7553    0.3339   61.0850 C.ar    1  ZINC000011157684   -0.0900
     12 Cl12      -10.3656    0.8679   59.5500 Cl      1  ZINC000011157684   -0.0500
     13 N13       -10.0615   -3.0069   58.0089 N.am    1  ZINC000011157684   -0.7200
     14 C14       -10.8682   -3.6083   56.9442 C.3     1  ZINC000011157684    0.2600
     15 H15       -10.4101   -4.5448   56.6259 H       1  ZINC000011157684    0.1200
     16 C16       -10.9416   -2.6617   55.7738 C.2     1  ZINC000011157684   -0.1900
     17 C17       -11.0344   -3.0267   54.4943 C.2     1  ZINC000011157684   -0.1200
     18 C18       -11.0885   -1.9789   53.5913 C.2     1  ZINC000011157684   -0.1300
     19 C19       -11.0396   -0.7630   54.1376 C.2     1  ZINC000011157684   -0.2100
     20 S20       -10.9254   -0.9066   55.8869 S.3     1  ZINC000011157684    0.1100
     21 C21       -12.2585   -3.8789   57.4593 C.ar    1  ZINC000011157684   -0.0900
     22 C22       -12.7997   -3.0734   58.4437 C.ar    1  ZINC000011157684   -0.1100
     23 C23       -14.0749   -3.3217   58.9162 C.ar    1  ZINC000011157684   -0.1100
     24 C24       -14.8090   -4.3749   58.4038 C.ar    1  ZINC000011157684   -0.1100
     25 C25       -14.2680   -5.1798   57.4187 C.ar    1  ZINC000011157684   -0.1100
     26 C26       -12.9945   -4.9290   56.9432 C.ar    1  ZINC000011157684   -0.1000
     27 H27        -9.2543   -3.4263   61.1347 H       1  ZINC000011157684    0.1000
     28 H28        -7.8237   -3.4720   60.0765 H       1  ZINC000011157684    0.1000
     29 H29        -8.7948   -1.2523   59.1752 H       1  ZINC000011157684    0.4200
     30 H30        -8.0741   -2.2449   62.4899 H       1  ZINC000011157684    0.1400
     31 H31        -8.4057   -0.8512   64.4914 H       1  ZINC000011157684    0.1400
     32 H32       -10.4680    2.0519   62.1377 H       1  ZINC000011157684    0.1500
     33 H33        -9.7986   -2.0750   57.9508 H       1  ZINC000011157684    0.4000
     34 H34       -11.0647   -4.0613   54.1861 H       1  ZINC000011157684    0.1400
     35 H35       -11.1643   -2.1342   52.5252 H       1  ZINC000011157684    0.1400
     36 H36       -11.0693    0.1673   53.5899 H       1  ZINC000011157684    0.1700
     37 H37       -12.2261   -2.2505   58.8440 H       1  ZINC000011157684    0.1200
     38 H38       -14.4974   -2.6928   59.6859 H       1  ZINC000011157684    0.1300
     39 H39       -15.8051   -4.5693   58.7735 H       1  ZINC000011157684    0.1300
     40 H40       -14.8415   -6.0029   57.0186 H       1  ZINC000011157684    0.1300
     41 H41       -12.5720   -5.5578   56.1735 H       1  ZINC000011157684    0.1300
@<TRIPOS>BOND
     1     1     2    2
     2     2     3    1
     3     2    13   am
     4     3     4    1
     5     3    27    1
     6     3    28    1
     7     4     5    1
     8     4    29    1
     9     5    11   ar
    10     5     6   ar
    11     6     7   ar
    12     6    30    1
    13     7     8   ar
    14     7    31    1
    15     8     9    1
    16     8    10   ar
    17    10    11   ar
    18    10    32    1
    19    11    12    1
    20    13    14    1
    21    13    33    1
    22    14    15    1
    23    14    16    1
    24    14    21    1
    25    16    20    1
    26    16    17    2
    27    17    18    1
    28    17    34    1
    29    18    19    2
    30    18    35    1
    31    19    20    1
    32    19    36    1
    33    21    26   ar
    34    21    22   ar
    35    22    23   ar
    36    22    37    1
    37    23    24   ar
    38    23    38    1
    39    24    25   ar
    40    24    39    1
    41    25    26   ar
    42    25    40    1
    43    26    41    1
@<TRIPOS>SUBSTRUCTURE
     1 ZINC000011157684        1 TEMP              0 ****  ****    0 ROOT


##########                                Name:    ZINC000919225759
##########                DOCK_Rotatable_Bonds:                   4
##########                         Heavy_Atoms:                  27
##########                    Molecular_Weight:             375.295
##########                DOCK_Rotatable_Bonds:                   4
##########                       Formal_Charge:                0.04
##########                     HBond_Acceptors:                  11
##########                        HBond_Donors:                   0
##########                         Heavy_Atoms:                  27
##########                          Grid_Score:          -36.165401
##########                     Grid_vdw_energy:          -35.942059
##########                      Grid_es_energy:           -0.223344
##########           Internal_energy_repulsive:            7.046718

@<TRIPOS>MOLECULE
ZINC000919225759
 40 41 1 0 0
SMALL
USER_CHARGES


@<TRIPOS>ATOM
      1 C1        -14.1180   -3.5084   56.2149 C.3     1  ZINC000919225759   -0.1500
      2 C2        -13.0302   -3.1384   57.1902 C.ar    1  ZINC000919225759    0.0900
      3 C3        -11.7371   -2.8804   56.7313 C.ar    1  ZINC000919225759   -0.1200
      4 C4        -11.4303   -2.9690   55.2889 C.2     1  ZINC000919225759    0.5200
      5 O5        -10.7105   -3.8552   54.8743 O.2     1  ZINC000919225759   -0.4700
      6 O6        -11.9490   -2.0668   54.4334 O.3     1  ZINC000919225759   -0.3400
      7 C7        -11.3317   -1.9705   53.1227 C.3     1  ZINC000919225759    0.1400
      8 H8        -10.9280   -2.9425   52.8389 H       1  ZINC000919225759    0.1100
      9 C9        -12.3793   -1.5343   52.0964 C.3     1  ZINC000919225759   -0.1700
     10 C10       -10.2175   -0.9568   53.1654 C.ar    1  ZINC000919225759   -0.1000
     11 C11       -10.2798    0.1015   54.0522 C.ar    1  ZINC000919225759   -0.0400
     12 C12        -9.2576    1.0316   54.0914 C.ar    1  ZINC000919225759   -0.1100
     13 C13        -8.1733    0.9029   53.2441 C.ar    1  ZINC000919225759   -0.0500
     14 C14        -8.1106   -0.1563   52.3577 C.ar    1  ZINC000919225759   -0.0400
     15 N15        -6.9496   -0.2938   51.4499 N.pl3   1  ZINC000919225759    0.0300
     16 O16        -6.0495    0.5260   51.4839 O.2     1  ZINC000919225759   -0.1500
     17 O17        -6.8943   -1.2269   50.6689 O.2     1  ZINC000919225759   -0.1500
     18 C18        -9.1304   -1.0884   52.3215 C.ar    1  ZINC000919225759   -0.0400
     19 C19       -10.7353   -2.5378   57.6417 C.ar    1  ZINC000919225759    0.0500
     20 C20       -11.0288   -2.4565   58.9869 C.ar    1  ZINC000919225759   -0.0600
     21 N21        -9.9683   -2.0929   59.9535 N.pl3   1  ZINC000919225759    0.0300
     22 O22        -8.8380   -1.8661   59.5606 O.2     1  ZINC000919225759   -0.1300
     23 O23       -10.2260   -2.0208   61.1417 O.2     1  ZINC000919225759   -0.1300
     24 C24       -12.3126   -2.7135   59.4350 C.ar    1  ZINC000919225759    0.0400
     25 C25       -13.3112   -3.0483   58.5378 C.ar    1  ZINC000919225759   -0.0500
     26 N26       -14.6816   -3.3210   59.0262 N.pl3   1  ZINC000919225759    0.0200
     27 O27       -14.8469   -3.9110   60.0789 O.2     1  ZINC000919225759   -0.1300
     28 O28       -15.6440   -2.9555   58.3754 O.2     1  ZINC000919225759   -0.1200
     29 H29       -14.5379   -2.6023   55.7783 H       1  ZINC000919225759    0.1200
     30 H30       -13.7006   -4.1327   55.4249 H       1  ZINC000919225759    0.1200
     31 H31       -14.9018   -4.0577   56.7363 H       1  ZINC000919225759    0.0900
     32 H32       -12.7830   -0.5624   52.3801 H       1  ZINC000919225759    0.0700
     33 H33       -11.9159   -1.4619   51.1124 H       1  ZINC000919225759    0.0900
     34 H34       -13.1851   -2.2675   52.0655 H       1  ZINC000919225759    0.0700
     35 H35       -11.1271    0.2020   54.7142 H       1  ZINC000919225759    0.1500
     36 H36        -9.3066    1.8589   54.7839 H       1  ZINC000919225759    0.1500
     37 H37        -7.3751    1.6299   53.2742 H       1  ZINC000919225759    0.1600
     38 H38        -9.0815   -1.9158   51.6290 H       1  ZINC000919225759    0.1600
     39 H39        -9.7328   -2.3373   57.2935 H       1  ZINC000919225759    0.1900
     40 H40       -12.5370   -2.6488   60.4895 H       1  ZINC000919225759    0.1900
@<TRIPOS>BOND
     1     1     2    1
     2     1    29    1
     3     1    30    1
     4     1    31    1
     5     2    25   ar
     6     2     3   ar
     7     3     4    1
     8     3    19   ar
     9     4     5    2
    10     4     6    1
    11     6     7    1
    12     7     8    1
    13     7     9    1
    14     7    10    1
    15     9    32    1
    16     9    33    1
    17     9    34    1
    18    10    18   ar
    19    10    11   ar
    20    11    12   ar
    21    11    35    1
    22    12    13   ar
    23    12    36    1
    24    13    14   ar
    25    13    37    1
    26    14    15    1
    27    14    18   ar
    28    15    16    2
    29    15    17    2
    30    18    38    1
    31    19    20   ar
    32    19    39    1
    33    20    21    1
    34    20    24   ar
    35    21    22    2
    36    21    23    2
    37    24    25   ar
    38    24    40    1
    39    25    26    1
    40    26    27    2
    41    26    28    2
@<TRIPOS>SUBSTRUCTURE
     1 ZINC000919225759        1 TEMP              0 ****  ****    0 ROOT


##########                                Name:    ZINC000054627026
##########                DOCK_Rotatable_Bonds:                   5
##########                         Heavy_Atoms:                  28
##########                    Molecular_Weight:              370.37
##########                DOCK_Rotatable_Bonds:                   5
##########                       Formal_Charge:         6.85453e-07
##########                     HBond_Acceptors:                   8
##########                        HBond_Donors:                   2
##########                         Heavy_Atoms:                  28
##########                          Grid_Score:          -36.098392
##########                     Grid_vdw_energy:          -36.577389
##########                      Grid_es_energy:            0.478995
##########           Internal_energy_repulsive:            4.859656

@<TRIPOS>MOLECULE
ZINC000054627026
 42 46 1 0 0
SMALL
USER_CHARGES


@<TRIPOS>ATOM
      1 O1         -9.8987   -1.8636   51.5499 O.2     1  ZINC000054627026   -0.5200
      2 C2        -10.1629   -1.7127   52.7272 C.2     1  ZINC000054627026    0.6100
      3 N3         -9.6377   -0.6748   53.4080 N.am    1  ZINC000054627026   -0.6500
      4 C4         -8.7832    0.2265   52.7610 C.ar    1  ZINC000054627026    0.1400
      5 C5         -9.1592    1.5612   52.6246 C.ar    1  ZINC000054627026   -0.0900
      6 C6         -8.3272    2.4589   51.9902 C.ar    1  ZINC000054627026   -0.0900
      7 C7         -7.1076    2.0343   51.4833 C.ar    1  ZINC000054627026    0.0500
      8 N8         -6.0768    2.6694   50.8128 N.pl3   1  ZINC000054627026   -0.5900
      9 C9         -5.1154    1.7249   50.5612 C.2     1  ZINC000054627026    0.3700
     10 C10        -3.8449    1.9751   49.8647 C.2     1  ZINC000054627026    0.0200
     11 C11        -2.7166    2.4997   50.4215 C.2     1  ZINC000054627026   -0.1200
     12 C12        -1.7521    2.5616   49.3994 C.2     1  ZINC000054627026   -0.2200
     13 C13        -2.3295    2.0778   48.2800 C.2     1  ZINC000054627026   -0.0100
     14 O14        -3.5906    1.7202   48.5657 O.3     1  ZINC000054627026   -0.1700
     15 N15        -5.5011    0.5626   51.0369 N.2     1  ZINC000054627026   -0.4600
     16 C16        -6.7196    0.6889   51.6163 C.ar    1  ZINC000054627026    0.0700
     17 C17        -7.5691   -0.2117   52.2663 C.ar    1  ZINC000054627026   -0.0900
     18 C18       -11.0628   -2.6620   53.4087 C.2     1  ZINC000054627026   -0.1000
     19 C19       -11.5703   -2.5170   54.6689 C.2     1  ZINC000054627026    0.1000
     20 N20       -12.3422   -3.6001   54.9058 N.pl3   1  ZINC000054627026   -0.3100
     21 C21       -13.0629   -3.8734   56.0771 C.ar    1  ZINC000054627026    0.1300
     22 C22       -13.5946   -5.1385   56.2874 C.ar    1  ZINC000054627026   -0.1200
     23 C23       -14.3037   -5.4049   57.4423 C.ar    1  ZINC000054627026   -0.1000
     24 C24       -14.4848   -4.4128   58.3885 C.ar    1  ZINC000054627026   -0.1100
     25 C25       -13.9568   -3.1516   58.1815 C.ar    1  ZINC000054627026   -0.1000
     26 C26       -13.2416   -2.8811   57.0314 C.ar    1  ZINC000054627026   -0.1000
     27 N27       -12.2840   -4.3980   53.7543 N.2     1  ZINC000054627026   -0.0500
     28 N28       -11.5271   -3.8132   52.8926 N.2     1  ZINC000054627026   -0.2000
     29 H29        -9.8517   -0.5521   54.3462 H       1  ZINC000054627026    0.4200
     30 H30       -10.1082    1.8943   53.0179 H       1  ZINC000054627026    0.1500
     31 H31        -8.6249    3.4920   51.8876 H       1  ZINC000054627026    0.1300
     32 H32        -6.0414    3.6070   50.5665 H       1  ZINC000054627026    0.4300
     33 H33        -2.5882    2.8086   51.4484 H       1  ZINC000054627026    0.1600
     34 H34        -0.7404    2.9277   49.4931 H       1  ZINC000054627026    0.1600
     35 H35        -1.8538    1.9899   47.3143 H       1  ZINC000054627026    0.2100
     36 H36        -7.2792   -1.2461   52.3788 H       1  ZINC000054627026    0.1400
     37 H37       -11.3890   -1.6951   55.3455 H       1  ZINC000054627026    0.2100
     38 H38       -13.4540   -5.9136   55.5485 H       1  ZINC000054627026    0.1400
     39 H39       -14.7175   -6.3888   57.6065 H       1  ZINC000054627026    0.1400
     40 H40       -15.0399   -4.6233   59.2906 H       1  ZINC000054627026    0.1400
     41 H41       -14.1002   -2.3787   58.9221 H       1  ZINC000054627026    0.1400
     42 H42       -12.8295   -1.8958   56.8703 H       1  ZINC000054627026    0.1400
@<TRIPOS>BOND
     1     1     2    2
     2     2     3   am
     3     2    18    1
     4     3     4    1
     5     3    29    1
     6     4    17   ar
     7     4     5   ar
     8     5     6   ar
     9     5    30    1
    10     6     7   ar
    11     6    31    1
    12     7    16   ar
    13     7     8    1
    14     8     9    1
    15     8    32    1
    16     9    10    1
    17     9    15    2
    18    10    14    1
    19    10    11    2
    20    11    12    1
    21    11    33    1
    22    12    13    2
    23    12    34    1
    24    13    14    1
    25    13    35    1
    26    15    16    1
    27    16    17   ar
    28    17    36    1
    29    18    28    1
    30    18    19    2
    31    19    20    1
    32    19    37    1
    33    20    21    1
    34    20    27    1
    35    21    26   ar
    36    21    22   ar
    37    22    23   ar
    38    22    38    1
    39    23    24   ar
    40    23    39    1
    41    24    25   ar
    42    24    40    1
    43    25    26   ar
    44    25    41    1
    45    26    42    1
    46    27    28    2
@<TRIPOS>SUBSTRUCTURE
     1 ZINC000054627026        1 TEMP              0 ****  ****    0 ROOT


##########                                Name:    ZINC000461678839
##########                DOCK_Rotatable_Bonds:                   6
##########                         Heavy_Atoms:                  28
##########                    Molecular_Weight:             404.939
##########                DOCK_Rotatable_Bonds:                   6
##########                       Formal_Charge:          -0.0200003
##########                     HBond_Acceptors:                   7
##########                        HBond_Donors:                   0
##########                         Heavy_Atoms:                  28
##########                          Grid_Score:          -36.092121
##########                     Grid_vdw_energy:          -35.622250
##########                      Grid_es_energy:           -0.469873
##########           Internal_energy_repulsive:           13.594424

@<TRIPOS>MOLECULE
ZINC000461678839
 57 60 1 0 0
SMALL
USER_CHARGES


@<TRIPOS>ATOM
      1 C1        -10.6626    0.8833   61.7955 C.3     1  ZINC000461678839   -0.1500
      2 C2        -10.1244   -0.1981   60.8563 C.3     1  ZINC000461678839   -0.0900
      3 H3         -9.1449   -0.5202   61.2095 H       1  ZINC000461678839    0.0700
      4 C4         -9.9785    0.3945   59.4367 C.3     1  ZINC000461678839   -0.1100
      5 C5         -9.0644   -0.4902   58.6316 C.3     1  ZINC000461678839   -0.1200
      6 C6         -9.8201   -1.5761   57.8451 C.3     1  ZINC000461678839    0.0600
      7 N7        -10.9035   -2.2162   58.6231 N.3     1  ZINC000461678839   -0.4600
      8 C8        -11.3679   -3.3549   57.9840 C.2     1  ZINC000461678839    0.3700
      9 N9        -10.7918   -4.5338   57.9745 N.2     1  ZINC000461678839   -0.3100
     10 N10       -11.4966   -5.3586   57.2853 N.2     1  ZINC000461678839   -0.2500
     11 C11       -12.5552   -4.7598   56.8180 C.2     1  ZINC000461678839    0.1700
     12 C12       -13.6299   -5.3823   55.9643 C.3     1  ZINC000461678839    0.1500
     13 O13       -13.1332   -5.5740   54.6382 O.3     1  ZINC000461678839   -0.3100
     14 C14       -13.0573   -4.4745   53.8428 C.ar    1  ZINC000461678839    0.1400
     15 C15       -11.8551   -4.1354   53.2394 C.ar    1  ZINC000461678839   -0.2000
     16 C16       -11.7800   -3.0175   52.4314 C.ar    1  ZINC000461678839   -0.0700
     17 C17       -12.9027   -2.2359   52.2240 C.ar    1  ZINC000461678839   -0.0700
     18 Cl18      -12.8056   -0.8312   51.2086 Cl      1  ZINC000461678839   -0.0700
     19 C19       -14.1029   -2.5727   52.8246 C.ar    1  ZINC000461678839   -0.0700
     20 C20       -14.1834   -3.6930   53.6287 C.ar    1  ZINC000461678839   -0.1400
     21 N21       -12.5136   -3.4634   57.2508 N.pl3   1  ZINC000461678839   -0.4600
     22 C22       -13.4916   -2.4076   56.9769 C.3     1  ZINC000461678839    0.1200
     23 C23       -14.7671   -2.6734   57.7790 C.3     1  ZINC000461678839   -0.1400
     24 H24       -15.3066   -3.5251   57.3647 H       1  ZINC000461678839    0.0900
     25 C25       -15.6696   -1.4157   57.7941 C.3     1  ZINC000461678839   -0.1500
     26 C26       -16.1854   -1.4038   59.2557 C.3     1  ZINC000461678839    0.0500
     27 O27       -15.0468   -1.8582   60.0184 O.3     1  ZINC000461678839   -0.3700
     28 C28       -14.4301   -2.9182   59.2627 C.3     1  ZINC000461678839    0.0400
     29 C29       -10.5432   -2.5015   59.9910 C.3     1  ZINC000461678839    0.0700
     30 C30       -11.0345   -1.3379   60.8719 C.3     1  ZINC000461678839   -0.1100
     31 H31       -10.7507    0.4779   62.8035 H       1  ZINC000461678839    0.0500
     32 H32        -9.9778    1.7313   61.8035 H       1  ZINC000461678839    0.0500
     33 H33       -11.6427    1.2108   61.4486 H       1  ZINC000461678839    0.0600
     34 H34       -10.9567    0.4406   58.9580 H       1  ZINC000461678839    0.0700
     35 H35        -9.5537    1.3962   59.5009 H       1  ZINC000461678839    0.0700
     36 H36        -8.5066    0.1285   57.9286 H       1  ZINC000461678839    0.0800
     37 H37        -8.3586   -0.9732   59.3074 H       1  ZINC000461678839    0.0700
     38 H38       -10.2512   -1.1246   56.9515 H       1  ZINC000461678839    0.0700
     39 H39        -9.1098   -2.3437   57.5380 H       1  ZINC000461678839    0.0500
     40 H40       -13.9178   -6.3447   56.3871 H       1  ZINC000461678839    0.0800
     41 H41       -14.4979   -4.7237   55.9356 H       1  ZINC000461678839    0.1000
     42 H42       -10.9783   -4.7448   53.4016 H       1  ZINC000461678839    0.1400
     43 H43       -10.8441   -2.7531   51.9615 H       1  ZINC000461678839    0.1400
     44 H44       -14.9782   -1.9616   52.6613 H       1  ZINC000461678839    0.1400
     45 H45       -15.1204   -3.9557   54.0973 H       1  ZINC000461678839    0.1400
     46 H46       -13.0751   -1.4426   57.2659 H       1  ZINC000461678839    0.1100
     47 H47       -13.7270   -2.3977   55.9127 H       1  ZINC000461678839    0.1000
     48 H48       -15.0897   -0.5182   57.5790 H       1  ZINC000461678839    0.0800
     49 H49       -16.4957   -1.5212   57.0910 H       1  ZINC000461678839    0.0900
     50 H50       -16.4694   -0.3947   59.5543 H       1  ZINC000461678839    0.1000
     51 H51       -17.0241   -2.0901   59.3724 H       1  ZINC000461678839    0.0600
     52 H52       -14.8282   -3.8813   59.5821 H       1  ZINC000461678839    0.0500
     53 H53       -13.3498   -2.8955   59.4057 H       1  ZINC000461678839    0.1100
     54 H54       -11.0173   -3.4297   60.3099 H       1  ZINC000461678839    0.0900
     55 H55        -9.4603   -2.5941   60.0739 H       1  ZINC000461678839    0.0600
     56 H56       -11.1360   -1.6917   61.8979 H       1  ZINC000461678839    0.0700
     57 H57       -12.0123   -1.0146   60.5149 H       1  ZINC000461678839    0.0700
@<TRIPOS>BOND
     1     1     2    1
     2     1    31    1
     3     1    32    1
     4     1    33    1
     5     2     3    1
     6     2    30    1
     7     2     4    1
     8     4     5    1
     9     4    34    1
    10     4    35    1
    11     5     6    1
    12     5    36    1
    13     5    37    1
    14     6     7    1
    15     6    38    1
    16     6    39    1
    17     7     8    1
    18     7    29    1
    19     8    21    1
    20     8     9    2
    21     9    10    1
    22    10    11    2
    23    11    12    1
    24    11    21    1
    25    12    13    1
    26    12    40    1
    27    12    41    1
    28    13    14    1
    29    14    20   ar
    30    14    15   ar
    31    15    16   ar
    32    15    42    1
    33    16    17   ar
    34    16    43    1
    35    17    18    1
    36    17    19   ar
    37    19    20   ar
    38    19    44    1
    39    20    45    1
    40    21    22    1
    41    22    23    1
    42    22    46    1
    43    22    47    1
    44    23    24    1
    45    23    28    1
    46    23    25    1
    47    25    26    1
    48    25    48    1
    49    25    49    1
    50    26    27    1
    51    26    50    1
    52    26    51    1
    53    27    28    1
    54    28    52    1
    55    28    53    1
    56    29    30    1
    57    29    54    1
    58    29    55    1
    59    30    56    1
    60    30    57    1
@<TRIPOS>SUBSTRUCTURE
     1 ZINC000461678839        1 TEMP              0 ****  ****    0 ROOT


##########                                Name:    ZINC000150894060
##########                DOCK_Rotatable_Bonds:                  10
##########                         Heavy_Atoms:                  27
##########                    Molecular_Weight:              366.42
##########                DOCK_Rotatable_Bonds:                  10
##########                       Formal_Charge:        -6.70552e-07
##########                     HBond_Acceptors:                   7
##########                        HBond_Donors:                   2
##########                         Heavy_Atoms:                  27
##########                          Grid_Score:          -36.059765
##########                     Grid_vdw_energy:          -34.581432
##########                      Grid_es_energy:           -1.478331
##########           Internal_energy_repulsive:           15.091248

@<TRIPOS>MOLECULE
ZINC000150894060
 49 51 1 0 0
SMALL
USER_CHARGES


@<TRIPOS>ATOM
      1 C1         -7.5204    0.6611   52.1542 C.3     1  ZINC000150894060   -0.1000
      2 C2         -8.3550    0.8478   53.3951 C.2     1  ZINC000150894060   -0.0800
      3 C3         -9.5406    0.2331   53.6800 C.2     1  ZINC000150894060   -0.1000
      4 C4        -10.2366   -0.7348   52.8258 C.2     1  ZINC000150894060    0.6100
      5 O5         -9.6955   -1.1601   51.8221 O.2     1  ZINC000150894060   -0.5100
      6 N6        -11.4753   -1.1532   53.1523 N.am    1  ZINC000150894060   -0.7200
      7 C7        -12.1699   -2.1214   52.3000 C.3     1  ZINC000150894060    0.1200
      8 C8        -12.9113   -3.1328   53.1765 C.3     1  ZINC000150894060   -0.1500
      9 C9        -11.9188   -4.1654   53.7146 C.3     1  ZINC000150894060    0.1200
     10 N10       -11.2389   -3.6214   54.8928 N.am    1  ZINC000150894060   -0.7300
     11 C11       -11.5700   -4.0587   56.1238 C.2     1  ZINC000150894060    0.5600
     12 O12       -12.4318   -4.9056   56.2565 O.2     1  ZINC000150894060   -0.5300
     13 C13       -10.8850   -3.5085   57.3128 C.ar    1  ZINC000150894060   -0.1300
     14 C14       -10.4423   -2.1848   57.3168 C.ar    1  ZINC000150894060   -0.0900
     15 C15        -9.8043   -1.6774   58.4298 C.ar    1  ZINC000150894060   -0.0900
     16 C16        -9.6025   -2.4777   59.5403 C.ar    1  ZINC000150894060   -0.0800
     17 C17        -8.9043   -1.9168   60.7523 C.3     1  ZINC000150894060    0.1700
     18 N18        -9.8448   -1.0997   61.5230 N.pl3   1  ZINC000150894060   -0.3700
     19 C19        -9.5702   -0.4401   62.6679 C.2     1  ZINC000150894060    0.0500
     20 C20       -10.7003    0.1922   63.0608 C.2     1  ZINC000150894060   -0.2700
     21 C21       -11.6996   -0.0906   62.1239 C.2     1  ZINC000150894060    0.0400
     22 N22       -11.1863   -0.8599   61.1984 N.2     1  ZINC000150894060   -0.2900
     23 C23       -10.0393   -3.7905   59.5430 C.ar    1  ZINC000150894060   -0.1100
     24 C24       -10.6834   -4.3087   58.4386 C.ar    1  ZINC000150894060   -0.0600
     25 O25        -9.9595    0.6723   54.8849 O.3     1  ZINC000150894060   -0.1700
     26 C26        -9.0716    1.5488   55.3719 C.2     1  ZINC000150894060    0.0000
     27 C27        -8.0612    1.6825   54.4847 C.2     1  ZINC000150894060   -0.2300
     28 H28        -6.8148   -0.1549   52.3103 H       1  ZINC000150894060    0.0800
     29 H29        -8.1700    0.4237   51.3118 H       1  ZINC000150894060    0.0900
     30 H30        -6.9727    1.5796   51.9432 H       1  ZINC000150894060    0.0700
     31 H31       -11.9071   -0.8133   53.9517 H       1  ZINC000150894060    0.4100
     32 H32       -12.8845   -1.5988   51.6642 H       1  ZINC000150894060    0.0800
     33 H33       -11.4437   -2.6438   51.6772 H       1  ZINC000150894060    0.0800
     34 H34       -13.3835   -2.6136   54.0105 H       1  ZINC000150894060    0.0800
     35 H35       -13.6744   -3.6369   52.5835 H       1  ZINC000150894060    0.0800
     36 H36       -12.4538   -5.0739   53.9911 H       1  ZINC000150894060    0.0800
     37 H37       -11.1826   -4.3972   52.9450 H       1  ZINC000150894060    0.0800
     38 H38       -10.5503   -2.9465   54.7868 H       1  ZINC000150894060    0.4000
     39 H39       -10.5985   -1.5593   56.4504 H       1  ZINC000150894060    0.1300
     40 H40        -9.4612   -0.6533   58.4341 H       1  ZINC000150894060    0.1300
     41 H41        -8.5407   -2.7354   61.3734 H       1  ZINC000150894060    0.1100
     42 H42        -8.0634   -1.3005   60.4344 H       1  ZINC000150894060    0.1000
     43 H43        -8.6191   -0.4208   63.1791 H       1  ZINC000150894060    0.1700
     44 H44       -10.8110    0.8062   63.9423 H       1  ZINC000150894060    0.1500
     45 H45       -12.7177    0.2683   62.1562 H       1  ZINC000150894060    0.1800
     46 H46        -9.8790   -4.4099   60.4131 H       1  ZINC000150894060    0.1300
     47 H47       -11.0242   -5.3336   58.4421 H       1  ZINC000150894060    0.1400
     48 H48        -9.1485    2.0612   56.3195 H       1  ZINC000150894060    0.2100
     49 H49        -7.1939    2.3173   54.5909 H       1  ZINC000150894060    0.1600
@<TRIPOS>BOND
     1     1     2    1
     2     1    28    1
     3     1    29    1
     4     1    30    1
     5     2    27    1
     6     2     3    2
     7     3     4    1
     8     3    25    1
     9     4     5    2
    10     4     6   am
    11     6     7    1
    12     6    31    1
    13     7     8    1
    14     7    32    1
    15     7    33    1
    16     8     9    1
    17     8    34    1
    18     8    35    1
    19     9    10    1
    20     9    36    1
    21     9    37    1
    22    10    11   am
    23    10    38    1
    24    11    12    2
    25    11    13    1
    26    13    24   ar
    27    13    14   ar
    28    14    15   ar
    29    14    39    1
    30    15    16   ar
    31    15    40    1
    32    16    17    1
    33    16    23   ar
    34    17    18    1
    35    17    41    1
    36    17    42    1
    37    18    22    1
    38    18    19    1
    39    19    20    2
    40    19    43    1
    41    20    21    1
    42    20    44    1
    43    21    22    2
    44    21    45    1
    45    23    24   ar
    46    23    46    1
    47    24    47    1
    48    25    26    1
    49    26    27    2
    50    26    48    1
    51    27    49    1
@<TRIPOS>SUBSTRUCTURE
     1 ZINC000150894060        1 TEMP              0 ****  ****    0 ROOT


##########                                Name:    ZINC001490207225
##########                DOCK_Rotatable_Bonds:                   7
##########                         Heavy_Atoms:                  24
##########                    Molecular_Weight:             334.378
##########                DOCK_Rotatable_Bonds:                   7
##########                       Formal_Charge:           -0.010001
##########                     HBond_Acceptors:                   9
##########                        HBond_Donors:                   3
##########                         Heavy_Atoms:                  24
##########                          Grid_Score:          -36.047363
##########                     Grid_vdw_energy:          -34.797295
##########                      Grid_es_energy:           -1.250068
##########           Internal_energy_repulsive:            5.573325

@<TRIPOS>MOLECULE
ZINC001490207225
 46 48 1 0 0
SMALL
USER_CHARGES


@<TRIPOS>ATOM
      1 C1        -13.3751   -2.3486   53.6764 C.3     1  ZINC001490207225    0.0900
      2 N2        -13.0369   -3.2464   54.7835 N.pl3   1  ZINC001490207225   -0.3600
      3 C3        -11.9441   -3.1590   55.5586 C.2     1  ZINC001490207225    0.1300
      4 C4        -12.0051   -4.1882   56.4766 C.2     1  ZINC001490207225   -0.3000
      5 C5        -11.0156   -4.4819   57.5292 C.2     1  ZINC001490207225    0.6200
      6 O6        -10.4671   -5.5667   57.5624 O.2     1  ZINC001490207225   -0.5400
      7 N7        -10.7189   -3.5482   58.4547 N.am    1  ZINC001490207225   -0.6200
      8 C8         -9.7557   -3.6800   59.5600 C.3     1  ZINC001490207225    0.1100
      9 C9        -10.2961   -2.8169   60.7121 C.3     1  ZINC001490207225   -0.1100
     10 H10       -10.7563   -3.4202   61.4947 H       1  ZINC001490207225    0.1000
     11 C11        -9.1555   -1.9319   61.2573 C.3     1  ZINC001490207225    0.1000
     12 N12        -9.7695   -0.5963   61.4383 N.am    1  ZINC001490207225   -0.6200
     13 C13        -9.5731    0.2740   62.4485 C.2     1  ZINC001490207225    0.5300
     14 O14       -10.1557    1.3377   62.4544 O.2     1  ZINC001490207225   -0.5300
     15 C15        -8.6296   -0.0746   63.5707 C.3     1  ZINC001490207225    0.1200
     16 N16        -8.0647    1.1545   64.1333 N.am    1  ZINC001490207225   -0.7400
     17 C17        -7.5937    1.1632   65.3961 C.2     1  ZINC001490207225    0.7100
     18 N18        -7.0726    2.2934   65.9132 N.am    1  ZINC001490207225   -0.8600
     19 O19        -7.6388    0.1514   66.0688 O.2     1  ZINC001490207225   -0.5900
     20 C20       -10.6482   -0.4341   60.2571 C.3     1  ZINC001490207225    0.1100
     21 C21       -11.3067   -1.8426   60.0532 C.3     1  ZINC001490207225   -0.0800
     22 C22       -12.7077   -1.9162   60.6637 C.3     1  ZINC001490207225   -0.1300
     23 C23       -11.2899   -2.1950   58.5538 C.3     1  ZINC001490207225    0.1000
     24 C24       -13.1938   -4.9072   56.2187 C.2     1  ZINC001490207225    0.0700
     25 N25       -13.8012   -4.3362   55.2153 N.2     1  ZINC001490207225   -0.2900
     26 H26       -13.9651   -1.5132   54.0533 H       1  ZINC001490207225    0.0800
     27 H27       -12.4592   -1.9708   53.2222 H       1  ZINC001490207225    0.0900
     28 H28       -13.9527   -2.8939   52.9300 H       1  ZINC001490207225    0.1000
     29 H29       -11.1610   -2.4195   55.4786 H       1  ZINC001490207225    0.1900
     30 H30        -9.6865   -4.7216   59.8736 H       1  ZINC001490207225    0.0900
     31 H31        -8.7764   -3.3168   59.2481 H       1  ZINC001490207225    0.0800
     32 H32        -8.7983   -2.3181   62.2119 H       1  ZINC001490207225    0.0900
     33 H33        -8.3382   -1.8799   60.5379 H       1  ZINC001490207225    0.0900
     34 H34        -9.1720   -0.6138   64.3472 H       1  ZINC001490207225    0.1000
     35 H35        -7.8248   -0.7019   63.1871 H       1  ZINC001490207225    0.1000
     36 H36        -8.0297    1.9621   63.5971 H       1  ZINC001490207225    0.4100
     37 H37        -6.7325    2.2993   66.8217 H       1  ZINC001490207225    0.4000
     38 H38        -7.0376    3.1010   65.3771 H       1  ZINC001490207225    0.4200
     39 H39       -11.4183    0.3110   60.4562 H       1  ZINC001490207225    0.0900
     40 H40       -10.0613   -0.1509   59.3833 H       1  ZINC001490207225    0.0800
     41 H41       -13.3534   -1.1826   60.1810 H       1  ZINC001490207225    0.0700
     42 H42       -13.1173   -2.9151   60.5141 H       1  ZINC001490207225    0.0600
     43 H43       -12.6504   -1.7032   61.7311 H       1  ZINC001490207225    0.0600
     44 H44       -10.6531   -1.4957   58.0122 H       1  ZINC001490207225    0.0800
     45 H45       -12.3027   -2.1677   58.1517 H       1  ZINC001490207225    0.0900
     46 H46       -13.5408   -5.7747   56.7602 H       1  ZINC001490207225    0.2000
@<TRIPOS>BOND
     1     1     2    1
     2     1    26    1
     3     1    27    1
     4     1    28    1
     5     2    25    1
     6     2     3    1
     7     3     4    2
     8     3    29    1
     9     4     5    1
    10     4    24    1
    11     5     6    2
    12     5     7   am
    13     7    23    1
    14     7     8    1
    15     8     9    1
    16     8    30    1
    17     8    31    1
    18     9    10    1
    19     9    21    1
    20     9    11    1
    21    11    12    1
    22    11    32    1
    23    11    33    1
    24    12    13   am
    25    12    20    1
    26    13    14    2
    27    13    15    1
    28    15    16    1
    29    15    34    1
    30    15    35    1
    31    16    17   am
    32    16    36    1
    33    17    18   am
    34    17    19    2
    35    18    37    1
    36    18    38    1
    37    20    21    1
    38    20    39    1
    39    20    40    1
    40    21    22    1
    41    21    23    1
    42    22    41    1
    43    22    42    1
    44    22    43    1
    45    23    44    1
    46    23    45    1
    47    24    25    2
    48    24    46    1
@<TRIPOS>SUBSTRUCTURE
     1 ZINC001490207225        1 TEMP              0 ****  ****    0 ROOT


##########                                Name:    ZINC000123469372
##########                DOCK_Rotatable_Bonds:                   7
##########                         Heavy_Atoms:                  25
##########                    Molecular_Weight:             341.382
##########                DOCK_Rotatable_Bonds:                   7
##########                       Formal_Charge:          -0.0300001
##########                     HBond_Acceptors:                   5
##########                        HBond_Donors:                   2
##########                         Heavy_Atoms:                  25
##########                          Grid_Score:          -36.037819
##########                     Grid_vdw_energy:          -35.426567
##########                      Grid_es_energy:           -0.611252
##########           Internal_energy_repulsive:            7.624766

@<TRIPOS>MOLECULE
ZINC000123469372
 45 47 1 0 0
SMALL
USER_CHARGES


@<TRIPOS>ATOM
      1 C1         -0.1885    1.5969   49.4712 C.3     1  ZINC000123469372   -0.1700
      2 C2         -1.4046    1.8418   48.5755 C.3     1  ZINC000123469372    0.1500
      3 H3         -1.4212    2.8860   48.2630 H       1  ZINC000123469372    0.0900
      4 C4         -1.3186    0.9415   47.3414 C.3     1  ZINC000123469372   -0.1600
      5 C5         -1.6905    1.7475   46.0953 C.3     1  ZINC000123469372    0.1500
      6 H6         -1.3061    2.7629   46.1913 H       1  ZINC000123469372    0.1100
      7 O7         -3.1126    1.7872   45.9604 O.3     1  ZINC000123469372   -0.5500
      8 C8         -1.0884    1.0955   44.8772 C.ar    1  ZINC000123469372   -0.1200
      9 C9         -1.7800    0.0995   44.2134 C.ar    1  ZINC000123469372   -0.1100
     10 C10        -1.2277   -0.4985   43.0960 C.ar    1  ZINC000123469372   -0.1200
     11 C11         0.0159   -0.1002   42.6424 C.ar    1  ZINC000123469372   -0.1200
     12 C12         0.7069    0.8964   43.3056 C.ar    1  ZINC000123469372   -0.1200
     13 C13         0.1529    1.4975   44.4204 C.ar    1  ZINC000123469372   -0.1100
     14 N14        -2.6288    1.5351   49.3194 N.am    1  ZINC000123469372   -0.7100
     15 C15        -3.1007    2.4093   50.2301 C.2     1  ZINC000123469372    0.5700
     16 O16        -2.5090    3.4530   50.4357 O.2     1  ZINC000123469372   -0.5400
     17 C17        -4.3238    2.1040   50.9715 C.2     1  ZINC000123469372   -0.2200
     18 C18        -5.0975    1.0524   50.6054 C.2     1  ZINC000123469372    0.0000
     19 C19        -6.3272    0.8029   51.3735 C.ar    1  ZINC000123469372   -0.1200
     20 C20        -6.9995   -0.4159   51.2951 C.ar    1  ZINC000123469372   -0.0900
     21 C21        -8.1516   -0.6062   52.0340 C.ar    1  ZINC000123469372    0.0700
     22 F22        -8.8086   -1.7845   51.9638 F       1  ZINC000123469372   -0.1400
     23 C23        -8.6362    0.4071   52.8480 C.ar    1  ZINC000123469372   -0.1100
     24 C24        -7.9761    1.6194   52.9317 C.ar    1  ZINC000123469372   -0.1200
     25 C25        -6.8214    1.8274   52.1996 C.ar    1  ZINC000123469372    0.1300
     26 O26        -6.1519    3.0053   52.2599 O.3     1  ZINC000123469372   -0.3000
     27 C27        -4.7263    2.9529   52.1492 C.3     1  ZINC000123469372    0.1100
     28 H28         0.7223    1.8250   48.9177 H       1  ZINC000123469372    0.0700
     29 H29        -0.2499    2.2382   50.3503 H       1  ZINC000123469372    0.0600
     30 H30        -0.1719    0.5527   49.7837 H       1  ZINC000123469372    0.0600
     31 H31        -0.3020    0.5619   47.2387 H       1  ZINC000123469372    0.0900
     32 H32        -2.0090    0.1055   47.4528 H       1  ZINC000123469372    0.0800
     33 H33        -3.4203    2.2713   45.1819 H       1  ZINC000123469372    0.3700
     34 H34        -2.7515   -0.2116   44.5678 H       1  ZINC000123469372    0.1200
     35 H35        -1.7677   -1.2772   42.5779 H       1  ZINC000123469372    0.1200
     36 H36         0.4476   -0.5679   41.7699 H       1  ZINC000123469372    0.1200
     37 H37         1.6786    1.2074   42.9513 H       1  ZINC000123469372    0.1200
     38 H38         0.6928    2.2761   44.9386 H       1  ZINC000123469372    0.1200
     39 H39        -3.0996    0.7029   49.1565 H       1  ZINC000123469372    0.4000
     40 H40        -4.8200    0.4184   49.7763 H       1  ZINC000123469372    0.1500
     41 H41        -6.6229   -1.2053   50.6614 H       1  ZINC000123469372    0.1500
     42 H42        -9.5374    0.2480   53.4214 H       1  ZINC000123469372    0.1500
     43 H43        -8.3616    2.4024   53.5678 H       1  ZINC000123469372    0.1500
     44 H44        -4.3091    2.5324   53.0641 H       1  ZINC000123469372    0.0800
     45 H45        -4.3384    3.9621   52.0105 H       1  ZINC000123469372    0.1100
@<TRIPOS>BOND
     1     1     2    1
     2     1    28    1
     3     1    29    1
     4     1    30    1
     5     2     3    1
     6     2     4    1
     7     2    14    1
     8     4     5    1
     9     4    31    1
    10     4    32    1
    11     5     6    1
    12     5     7    1
    13     5     8    1
    14     7    33    1
    15     8    13   ar
    16     8     9   ar
    17     9    10   ar
    18     9    34    1
    19    10    11   ar
    20    10    35    1
    21    11    12   ar
    22    11    36    1
    23    12    13   ar
    24    12    37    1
    25    13    38    1
    26    14    15   am
    27    14    39    1
    28    15    16    2
    29    15    17    1
    30    17    27    1
    31    17    18    2
    32    18    19    1
    33    18    40    1
    34    19    25   ar
    35    19    20   ar
    36    20    21   ar
    37    20    41    1
    38    21    22    1
    39    21    23   ar
    40    23    24   ar
    41    23    42    1
    42    24    25   ar
    43    24    43    1
    44    25    26    1
    45    26    27    1
    46    27    44    1
    47    27    45    1
@<TRIPOS>SUBSTRUCTURE
     1 ZINC000123469372        1 TEMP              0 ****  ****    0 ROOT


##########                                Name:    ZINC000967287417
##########                DOCK_Rotatable_Bonds:                   7
##########                         Heavy_Atoms:                  25
##########                    Molecular_Weight:             347.414
##########                DOCK_Rotatable_Bonds:                   7
##########                       Formal_Charge:          -0.0200002
##########                     HBond_Acceptors:                   7
##########                        HBond_Donors:                   1
##########                         Heavy_Atoms:                  25
##########                          Grid_Score:          -36.017120
##########                     Grid_vdw_energy:          -35.742901
##########                      Grid_es_energy:           -0.274219
##########           Internal_energy_repulsive:            7.675838

@<TRIPOS>MOLECULE
ZINC000967287417
 50 52 1 0 0
SMALL
USER_CHARGES


@<TRIPOS>ATOM
      1 C1         -4.5360    1.1978   50.3122 C.3     1  ZINC000967287417    0.0300
      2 O2         -5.6522    0.8975   51.1524 O.3     1  ZINC000967287417   -0.3900
      3 C3         -6.6075    0.0172   50.5571 C.3     1  ZINC000967287417    0.1400
      4 C4         -7.7356   -0.2291   51.5255 C.2     1  ZINC000967287417    0.0100
      5 C5         -8.1721    0.6410   52.4627 C.2     1  ZINC000967287417   -0.1900
      6 C6         -9.2307    0.0188   53.1429 C.2     1  ZINC000967287417   -0.1200
      7 C7         -9.3883   -1.2148   52.5791 C.2     1  ZINC000967287417   -0.0700
      8 C8        -10.3810   -2.2208   52.9707 C.2     1  ZINC000967287417    0.6100
      9 O9        -10.4468   -3.2769   52.3696 O.2     1  ZINC000967287417   -0.5200
     10 N10       -11.2206   -1.9757   53.9961 N.am    1  ZINC000967287417   -0.7000
     11 C11       -12.2111   -2.9813   54.3884 C.3     1  ZINC000967287417    0.1600
     12 H12       -12.3697   -3.6767   53.5641 H       1  ZINC000967287417    0.1000
     13 C13       -11.7044   -3.7473   55.6125 C.3     1  ZINC000967287417    0.0400
     14 N14       -11.5096   -2.8139   56.7294 N.3     1  ZINC000967287417   -0.5300
     15 C15       -10.8930   -3.4897   57.8787 C.3     1  ZINC000967287417    0.1300
     16 C16       -10.3063   -2.4610   58.8108 C.2     1  ZINC000967287417    0.0200
     17 N17        -9.3435   -1.6264   58.5444 N.2     1  ZINC000967287417   -0.3500
     18 O18        -9.0899   -0.9215   59.4936 O.3     1  ZINC000967287417    0.1000
     19 C19        -9.8747   -1.2062   60.5423 C.2     1  ZINC000967287417   -0.0300
     20 C20        -9.8517   -0.5395   61.8937 C.3     1  ZINC000967287417   -0.0800
     21 C21       -10.6966   -2.2071   60.1457 C.2     1  ZINC000967287417   -0.2400
     22 C22       -12.7739   -2.1726   57.1120 C.3     1  ZINC000967287417    0.0500
     23 C23       -13.3126   -1.3597   55.9326 C.3     1  ZINC000967287417   -0.1100
     24 C24       -13.5323   -2.2895   54.7351 C.3     1  ZINC000967287417   -0.1000
     25 H25       -14.2807   -3.0401   54.9892 H       1  ZINC000967287417    0.0900
     26 C26       -14.0147   -1.4723   53.5349 C.3     1  ZINC000967287417   -0.1500
     27 O27        -8.4744   -1.3441   51.5952 O.3     1  ZINC000967287417   -0.1600
     28 H28        -4.8877    1.6759   49.3979 H       1  ZINC000967287417    0.0500
     29 H29        -3.8575    1.8711   50.8363 H       1  ZINC000967287417    0.0900
     30 H30        -4.0113    0.2759   50.0616 H       1  ZINC000967287417    0.0500
     31 H31        -7.0019    0.4704   49.6476 H       1  ZINC000967287417    0.0900
     32 H32        -6.1259   -0.9295   50.3119 H       1  ZINC000967287417    0.0700
     33 H33        -7.7803    1.6292   52.6528 H       1  ZINC000967287417    0.1600
     34 H34        -9.8085    0.4351   53.9549 H       1  ZINC000967287417    0.1600
     35 H35       -11.1690   -1.1334   54.4745 H       1  ZINC000967287417    0.4100
     36 H36       -12.4355   -4.5046   55.8954 H       1  ZINC000967287417    0.0500
     37 H37       -10.7566   -4.2294   55.3727 H       1  ZINC000967287417    0.0900
     38 H38       -11.6491   -4.0699   58.4076 H       1  ZINC000967287417    0.0600
     39 H39       -10.1037   -4.1549   57.5286 H       1  ZINC000967287417    0.0900
     40 H40        -9.0830    0.2331   61.9047 H       1  ZINC000967287417    0.0800
     41 H41       -10.8236   -0.0880   62.0926 H       1  ZINC000967287417    0.0900
     42 H42        -9.6319   -1.2817   62.6611 H       1  ZINC000967287417    0.0900
     43 H43       -11.4672   -2.7014   60.7187 H       1  ZINC000967287417    0.1700
     44 H44       -13.5001   -2.9372   57.3879 H       1  ZINC000967287417    0.0400
     45 H45       -12.6031   -1.5110   57.9613 H       1  ZINC000967287417    0.0800
     46 H46       -14.2589   -0.8964   56.2119 H       1  ZINC000967287417    0.0700
     47 H47       -12.5930   -0.5859   55.6652 H       1  ZINC000967287417    0.0700
     48 H48       -13.2646   -0.7236   53.2801 H       1  ZINC000967287417    0.0600
     49 H49       -14.1707   -2.1347   52.6834 H       1  ZINC000967287417    0.0600
     50 H50       -14.9523   -0.9765   53.7861 H       1  ZINC000967287417    0.0600
@<TRIPOS>BOND
     1     1     2    1
     2     1    28    1
     3     1    29    1
     4     1    30    1
     5     2     3    1
     6     3     4    1
     7     3    31    1
     8     3    32    1
     9     4    27    1
    10     4     5    2
    11     5     6    1
    12     5    33    1
    13     6     7    2
    14     6    34    1
    15     7     8    1
    16     7    27    1
    17     8     9    2
    18     8    10   am
    19    10    11    1
    20    10    35    1
    21    11    12    1
    22    11    24    1
    23    11    13    1
    24    13    14    1
    25    13    36    1
    26    13    37    1
    27    14    15    1
    28    14    22    1
    29    15    16    1
    30    15    38    1
    31    15    39    1
    32    16    21    1
    33    16    17    2
    34    17    18    1
    35    18    19    1
    36    19    20    1
    37    19    21    2
    38    20    40    1
    39    20    41    1
    40    20    42    1
    41    21    43    1
    42    22    23    1
    43    22    44    1
    44    22    45    1
    45    23    24    1
    46    23    46    1
    47    23    47    1
    48    24    25    1
    49    24    26    1
    50    26    48    1
    51    26    49    1
    52    26    50    1
@<TRIPOS>SUBSTRUCTURE
     1 ZINC000967287417        1 TEMP              0 ****  ****    0 ROOT


##########                                Name:    ZINC000603906271
##########                DOCK_Rotatable_Bonds:                   8
##########                         Heavy_Atoms:                  29
##########                    Molecular_Weight:             391.473
##########                DOCK_Rotatable_Bonds:                   8
##########                       Formal_Charge:           0.0499998
##########                     HBond_Acceptors:                   7
##########                        HBond_Donors:                   3
##########                         Heavy_Atoms:                  29
##########                          Grid_Score:          -35.997730
##########                     Grid_vdw_energy:          -33.197609
##########                      Grid_es_energy:           -2.800122
##########           Internal_energy_repulsive:           23.874895

@<TRIPOS>MOLECULE
ZINC000603906271
 54 56 1 0 0
SMALL
USER_CHARGES


@<TRIPOS>ATOM
      1 C1        -13.1409   -1.4918   51.4415 C.3     1  ZINC000603906271   -0.1600
      2 C2        -11.6624   -1.6431   51.8050 C.3     1  ZINC000603906271    0.1300
      3 H3        -11.1198   -2.0571   50.9550 H       1  ZINC000603906271    0.1200
      4 N4        -11.1069   -0.3313   52.1470 N.am    1  ZINC000603906271   -0.7100
      5 C5         -9.7722   -0.1674   52.2372 C.2     1  ZINC000603906271    0.5700
      6 O6         -9.0294   -1.1084   52.0364 O.2     1  ZINC000603906271   -0.5300
      7 C7         -9.2115    1.1568   52.5806 C.ar    1  ZINC000603906271   -0.1400
      8 C8         -7.8291    1.3344   52.6557 C.ar    1  ZINC000603906271   -0.0800
      9 C9         -7.3123    2.5727   52.9762 C.ar    1  ZINC000603906271   -0.1200
     10 C10        -8.1612    3.6371   53.2235 C.ar    1  ZINC000603906271   -0.0400
     11 C11        -7.5896    4.9868   53.5736 C.3     1  ZINC000603906271   -0.0400
     12 C12        -6.2561    4.8029   54.3008 C.3     1  ZINC000603906271   -0.1400
     13 C13        -7.3651    5.7933   52.2929 C.3     1  ZINC000603906271   -0.1500
     14 C14        -8.5672    5.7346   54.4824 C.3     1  ZINC000603906271   -0.1400
     15 C15        -9.5324    3.4678   53.1503 C.ar    1  ZINC000603906271   -0.1300
     16 C16       -10.0620    2.2359   52.8256 C.ar    1  ZINC000603906271   -0.0500
     17 C17       -11.5277   -2.5692   52.9862 C.2     1  ZINC000603906271    0.5100
     18 O18       -10.9387   -3.6228   52.8667 O.2     1  ZINC000603906271   -0.5100
     19 N19       -12.0618   -2.2269   54.1753 N.am    1  ZINC000603906271   -0.6700
     20 C20       -11.9367   -3.0869   55.2720 C.ar    1  ZINC000603906271    0.1300
     21 C21       -12.7319   -4.2229   55.3585 C.ar    1  ZINC000603906271   -0.1200
     22 C22       -12.6111   -5.0747   56.4404 C.ar    1  ZINC000603906271   -0.1000
     23 C23       -11.7003   -4.8013   57.4409 C.ar    1  ZINC000603906271   -0.0900
     24 C24       -10.8988   -3.6636   57.3626 C.ar    1  ZINC000603906271    0.0000
     25 C25        -9.9194   -3.3680   58.4378 C.2     1  ZINC000603906271    0.2700
     26 N26        -9.1869   -4.2565   59.0728 N.2     1  ZINC000603906271   -0.3000
     27 N27        -8.4071   -3.5478   60.0011 N.pl3   1  ZINC000603906271   -0.4800
     28 C28        -8.7298   -2.2496   59.8597 C.2     1  ZINC000603906271    0.2700
     29 N29        -9.6309   -2.1511   58.9184 N.2     1  ZINC000603906271   -0.5300
     30 C30       -11.0149   -2.8087   56.2703 C.ar    1  ZINC000603906271   -0.0800
     31 H31       -13.6835   -1.0779   52.2914 H       1  ZINC000603906271    0.0700
     32 H32       -13.2383   -0.8220   50.5871 H       1  ZINC000603906271    0.0800
     33 H33       -13.5541   -2.4678   51.1871 H       1  ZINC000603906271    0.0700
     34 H34       -11.6997    0.4192   52.3085 H       1  ZINC000603906271    0.4100
     35 H35        -7.1655    0.5044   52.4636 H       1  ZINC000603906271    0.1300
     36 H36        -6.2429    2.7117   53.0347 H       1  ZINC000603906271    0.1300
     37 H37        -5.5596    4.2702   53.6533 H       1  ZINC000603906271    0.0600
     38 H38        -5.8426    5.7791   54.5540 H       1  ZINC000603906271    0.0600
     39 H39        -6.4160    4.2283   55.2131 H       1  ZINC000603906271    0.0600
     40 H40        -8.3151    5.9244   51.7748 H       1  ZINC000603906271    0.0600
     41 H41        -6.9516    6.7695   52.5461 H       1  ZINC000603906271    0.0600
     42 H42        -6.6686    5.2606   51.6455 H       1  ZINC000603906271    0.0600
     43 H43        -8.7271    5.1599   55.3948 H       1  ZINC000603906271    0.0600
     44 H44        -8.1538    6.7108   54.7356 H       1  ZINC000603906271    0.0600
     45 H45        -9.5172    5.8656   53.9644 H       1  ZINC000603906271    0.0600
     46 H46       -10.1895    4.3027   53.3441 H       1  ZINC000603906271    0.1400
     47 H47       -11.1325    2.1052   52.7684 H       1  ZINC000603906271    0.1400
     48 H48       -12.5328   -1.3843   54.2708 H       1  ZINC000603906271    0.4200
     49 H49       -13.4464   -4.4408   54.5786 H       1  ZINC000603906271    0.1300
     50 H50       -13.2315   -5.9565   56.5032 H       1  ZINC000603906271    0.1400
     51 H51       -11.6089   -5.4689   58.2850 H       1  ZINC000603906271    0.1400
     52 H52        -7.7625   -3.9212   60.6224 H       1  ZINC000603906271    0.4400
     53 H53        -8.3123   -1.4288   60.4240 H       1  ZINC000603906271    0.2300
     54 H54       -10.3961   -1.9261   56.2051 H       1  ZINC000603906271    0.1500
@<TRIPOS>BOND
     1     1     2    1
     2     1    31    1
     3     1    32    1
     4     1    33    1
     5     2     3    1
     6     2     4    1
     7     2    17    1
     8     4     5   am
     9     4    34    1
    10     5     6    2
    11     5     7    1
    12     7    16   ar
    13     7     8   ar
    14     8     9   ar
    15     8    35    1
    16     9    10   ar
    17     9    36    1
    18    10    11    1
    19    10    15   ar
    20    11    12    1
    21    11    13    1
    22    11    14    1
    23    12    37    1
    24    12    38    1
    25    12    39    1
    26    13    40    1
    27    13    41    1
    28    13    42    1
    29    14    43    1
    30    14    44    1
    31    14    45    1
    32    15    16   ar
    33    15    46    1
    34    16    47    1
    35    17    18    2
    36    17    19   am
    37    19    20    1
    38    19    48    1
    39    20    30   ar
    40    20    21   ar
    41    21    22   ar
    42    21    49    1
    43    22    23   ar
    44    22    50    1
    45    23    24   ar
    46    23    51    1
    47    24    25    1
    48    24    30   ar
    49    25    29    1
    50    25    26    2
    51    26    27    1
    52    27    28    1
    53    27    52    1
    54    28    29    2
    55    28    53    1
    56    30    54    1
@<TRIPOS>SUBSTRUCTURE
     1 ZINC000603906271        1 TEMP              0 ****  ****    0 ROOT


##########                                Name:    ZINC000543625960
##########                DOCK_Rotatable_Bonds:                   8
##########                         Heavy_Atoms:                  29
##########                    Molecular_Weight:             416.544
##########                DOCK_Rotatable_Bonds:                   8
##########                       Formal_Charge:           -0.010001
##########                     HBond_Acceptors:                   8
##########                        HBond_Donors:                   2
##########                         Heavy_Atoms:                  29
##########                          Grid_Score:          -35.965473
##########                     Grid_vdw_energy:          -35.989399
##########                      Grid_es_energy:            0.023927
##########           Internal_energy_repulsive:           15.467796

@<TRIPOS>MOLECULE
ZINC000543625960
 57 59 1 0 0
SMALL
USER_CHARGES


@<TRIPOS>ATOM
      1 C1         -3.1905    1.7826   49.1534 C.3     1  ZINC000543625960   -0.1500
      2 C2         -3.1464    2.3120   50.5882 C.3     1  ZINC000543625960   -0.1300
      3 C3         -4.5459    2.2382   51.2023 C.3     1  ZINC000543625960    0.1500
      4 H4         -5.2265    2.8707   50.6324 H       1  ZINC000543625960    0.0800
      5 C5         -4.4927    2.7230   52.6525 C.3     1  ZINC000543625960   -0.1700
      6 N6         -5.0220    0.8532   51.1676 N.am    1  ZINC000543625960   -1.1100
      7 S7         -6.5719    0.5221   50.6877 S.o2    1  ZINC000543625960    2.7000
      8 O8         -6.7403    1.1416   49.4199 O.2     1  ZINC000543625960   -0.9600
      9 O9         -6.7714   -0.8677   50.9062 O.2     1  ZINC000543625960   -0.9500
     10 C10        -7.6522    1.3607   51.7987 C.ar    1  ZINC000543625960   -0.6600
     11 C11        -7.7225    2.7415   51.7833 C.ar    1  ZINC000543625960   -0.0400
     12 C12        -8.5691    3.4035   52.6538 C.ar    1  ZINC000543625960   -0.1200
     13 C13        -9.3473    2.6867   53.5414 C.ar    1  ZINC000543625960   -0.0600
     14 C14        -9.2793    1.2996   53.5589 C.ar    1  ZINC000543625960    0.1500
     15 N15       -10.0666    0.5703   54.4572 N.am    1  ZINC000543625960   -0.6800
     16 C16        -9.6026    0.2984   55.6929 C.2     1  ZINC000543625960    0.7200
     17 O17        -8.5000    0.6867   56.0274 O.2     1  ZINC000543625960   -0.5600
     18 N18       -10.3608   -0.4039   56.5581 N.am    1  ZINC000543625960   -0.6300
     19 C19        -9.9785   -0.7702   57.9341 C.3     1  ZINC000543625960    0.0900
     20 C20       -11.3220   -0.9799   58.6763 C.3     1  ZINC000543625960   -0.1000
     21 H21       -11.1981   -1.6509   59.5263 H       1  ZINC000543625960    0.1000
     22 C22       -11.9182    0.3577   59.1195 C.3     1  ZINC000543625960   -0.1500
     23 C23       -12.1895   -1.6372   57.5705 C.3     1  ZINC000543625960   -0.1200
     24 C24       -11.7083   -0.9262   56.2882 C.3     1  ZINC000543625960    0.2000
     25 H25       -12.3855   -0.1086   56.0414 H       1  ZINC000543625960    0.0900
     26 C26       -11.6540   -1.9088   55.1469 C.ar    1  ZINC000543625960   -0.1400
     27 C27       -12.4311   -1.7142   54.0156 C.ar    1  ZINC000543625960   -0.0600
     28 C28       -12.3483   -2.6440   52.9901 C.ar    1  ZINC000543625960   -0.1700
     29 C29       -11.5001   -3.7260   53.1289 C.ar    1  ZINC000543625960    0.1000
     30 N30       -10.7752   -3.8792   54.2201 N.ar    1  ZINC000543625960   -0.4800
     31 C31       -10.8244   -3.0125   55.2126 C.ar    1  ZINC000543625960    0.1200
     32 C32        -8.4322    0.6378   52.6802 C.ar    1  ZINC000543625960   -0.0500
     33 H33        -2.1935    1.8352   48.7160 H       1  ZINC000543625960    0.0600
     34 H34        -3.5309    0.7471   49.1585 H       1  ZINC000543625960    0.0600
     35 H35        -3.8785    2.3883   48.5636 H       1  ZINC000543625960    0.0500
     36 H36        -2.4584    1.7062   51.1780 H       1  ZINC000543625960    0.0700
     37 H37        -2.8060    3.3475   50.5832 H       1  ZINC000543625960    0.0800
     38 H38        -4.1385    3.7535   52.6782 H       1  ZINC000543625960    0.0700
     39 H39        -5.4897    2.6705   53.0899 H       1  ZINC000543625960    0.0700
     40 H40        -3.8121    2.0905   53.2223 H       1  ZINC000543625960    0.0600
     41 H41        -4.4293    0.1300   51.4259 H       1  ZINC000543625960    0.4200
     42 H42        -7.1146    3.3043   51.0905 H       1  ZINC000543625960    0.1400
     43 H43        -8.6215    4.4820   52.6396 H       1  ZINC000543625960    0.1400
     44 H44       -10.0077    3.2042   54.2213 H       1  ZINC000543625960    0.1400
     45 H45       -10.9462    0.2606   54.1904 H       1  ZINC000543625960    0.4100
     46 H46        -9.3974   -1.6924   57.9336 H       1  ZINC000543625960    0.0700
     47 H47        -9.4109    0.0367   58.3976 H       1  ZINC000543625960    0.0800
     48 H48       -12.0720    0.9937   58.2477 H       1  ZINC000543625960    0.0600
     49 H49       -12.8733    0.1833   59.6151 H       1  ZINC000543625960    0.0600
     50 H50       -11.2342    0.8489   59.8115 H       1  ZINC000543625960    0.0600
     51 H51       -11.9982   -2.7090   57.5164 H       1  ZINC000543625960    0.0800
     52 H52       -13.2478   -1.4415   57.7432 H       1  ZINC000543625960    0.0900
     53 H53       -13.0857   -0.8590   53.9349 H       1  ZINC000543625960    0.1300
     54 H54       -12.9397   -2.5243   52.0943 H       1  ZINC000543625960    0.1400
     55 H55       -11.4302   -4.4547   52.3350 H       1  ZINC000543625960    0.1600
     56 H56       -10.2159   -3.1715   56.0906 H       1  ZINC000543625960    0.1400
     57 H57        -8.3771   -0.4408   52.6914 H       1  ZINC000543625960    0.1400
@<TRIPOS>BOND
     1     1     2    1
     2     1    33    1
     3     1    34    1
     4     1    35    1
     5     2     3    1
     6     2    36    1
     7     2    37    1
     8     3     4    1
     9     3     5    1
    10     3     6    1
    11     5    38    1
    12     5    39    1
    13     5    40    1
    14     6     7   am
    15     6    41    1
    16     7     8    2
    17     7     9    2
    18     7    10    1
    19    10    32   ar
    20    10    11   ar
    21    11    12   ar
    22    11    42    1
    23    12    13   ar
    24    12    43    1
    25    13    14   ar
    26    13    44    1
    27    14    15    1
    28    14    32   ar
    29    15    16   am
    30    15    45    1
    31    16    17    2
    32    16    18   am
    33    18    24    1
    34    18    19    1
    35    19    20    1
    36    19    46    1
    37    19    47    1
    38    20    21    1
    39    20    22    1
    40    20    23    1
    41    22    48    1
    42    22    49    1
    43    22    50    1
    44    23    24    1
    45    23    51    1
    46    23    52    1
    47    24    25    1
    48    24    26    1
    49    26    31   ar
    50    26    27   ar
    51    27    28   ar
    52    27    53    1
    53    28    29   ar
    54    28    54    1
    55    29    30   ar
    56    29    55    1
    57    30    31   ar
    58    31    56    1
    59    32    57    1
@<TRIPOS>SUBSTRUCTURE
     1 ZINC000543625960        1 TEMP              0 ****  ****    0 ROOT


##########                                Name:    ZINC000027473870
##########                DOCK_Rotatable_Bonds:                  10
##########                         Heavy_Atoms:                  31
##########                    Molecular_Weight:             422.502
##########                DOCK_Rotatable_Bonds:                  10
##########                       Formal_Charge:        -7.45058e-08
##########                     HBond_Acceptors:                   7
##########                        HBond_Donors:                   1
##########                         Heavy_Atoms:                  31
##########                          Grid_Score:          -35.963535
##########                     Grid_vdw_energy:          -35.064362
##########                      Grid_es_energy:           -0.899174
##########           Internal_energy_repulsive:           20.680580

@<TRIPOS>MOLECULE
ZINC000027473870
 58 60 1 0 0
SMALL
USER_CHARGES


@<TRIPOS>ATOM
      1 C1        -10.9118   -1.3648   57.1675 C.3     1  ZINC000027473870   -0.1400
      2 C2        -10.9879   -2.6973   57.9155 C.3     1  ZINC000027473870   -0.0800
      3 C3        -12.3015   -2.7877   58.6484 C.2     1  ZINC000027473870    0.1700
      4 C4        -13.4298   -3.4612   58.2242 C.2     1  ZINC000027473870   -0.2900
      5 C5        -13.5737   -4.2252   56.9718 C.2     1  ZINC000027473870    0.6000
      6 O6        -13.9076   -5.3940   57.0075 O.2     1  ZINC000027473870   -0.5400
      7 N7        -13.3352   -3.6285   55.7871 N.am    1  ZINC000027473870   -0.7200
      8 C8        -13.4800   -4.3873   54.5423 C.3     1  ZINC000027473870    0.1600
      9 C9        -13.4894   -3.4368   53.3729 C.ar    1  ZINC000027473870   -0.0900
     10 C10       -14.6829   -3.1320   52.7427 C.ar    1  ZINC000027473870   -0.1100
     11 C11       -14.6984   -2.2630   51.6713 C.ar    1  ZINC000027473870   -0.1100
     12 C12       -13.5067   -1.6908   51.2236 C.ar    1  ZINC000027473870   -0.1200
     13 C13       -13.5159   -0.7583   50.0762 C.2     1  ZINC000027473870    0.5600
     14 O14       -13.6490   -1.1863   48.9464 O.2     1  ZINC000027473870   -0.5300
     15 N15       -13.3766    0.5662   50.2831 N.am    1  ZINC000027473870   -0.6100
     16 C16       -13.3857    1.4901   49.1463 C.3     1  ZINC000027473870    0.1100
     17 C17       -14.3492    2.6432   49.4340 C.3     1  ZINC000027473870   -0.1700
     18 C18       -13.2161    1.0819   51.6450 C.3     1  ZINC000027473870    0.0900
     19 C19       -14.5791    1.1222   52.3389 C.3     1  ZINC000027473870   -0.1800
     20 C20       -12.3062   -2.0022   51.8640 C.ar    1  ZINC000027473870   -0.0700
     21 C21       -12.3054   -2.8687   52.9376 C.ar    1  ZINC000027473870   -0.1000
     22 C22       -14.4207   -3.2815   59.2156 C.2     1  ZINC000027473870    0.0900
     23 N23       -13.9123   -2.5479   60.1675 N.2     1  ZINC000027473870   -0.2800
     24 N24       -12.5892   -2.2321   59.8392 N.pl3   1  ZINC000027473870   -0.3100
     25 C25       -11.7143   -1.4590   60.6157 C.ar    1  ZINC000027473870    0.1300
     26 C26       -10.5149   -2.0004   61.0583 C.ar    1  ZINC000027473870   -0.0900
     27 C27        -9.6541   -1.2372   61.8226 C.ar    1  ZINC000027473870   -0.1300
     28 C28        -9.9868    0.0672   62.1475 C.ar    1  ZINC000027473870    0.1100
     29 F29        -9.1435    0.8124   62.8949 F       1  ZINC000027473870   -0.1300
     30 C30       -11.1829    0.6089   61.7068 C.ar    1  ZINC000027473870   -0.1400
     31 C31       -12.0437   -0.1494   60.9380 C.ar    1  ZINC000027473870   -0.0700
     32 H32        -9.9281   -1.2607   56.7097 H       1  ZINC000027473870    0.0700
     33 H33       -11.6778   -1.3389   56.3925 H       1  ZINC000027473870    0.0700
     34 H34       -11.0753   -0.5454   57.8676 H       1  ZINC000027473870    0.0500
     35 H35       -10.9120   -3.5188   57.2030 H       1  ZINC000027473870    0.1200
     36 H36       -10.1677   -2.7599   58.6307 H       1  ZINC000027473870    0.0800
     37 H37       -13.0676   -2.6965   55.7586 H       1  ZINC000027473870    0.4000
     38 H38       -12.6453   -5.0807   54.4403 H       1  ZINC000027473870    0.0800
     39 H39       -14.4157   -4.9458   54.5641 H       1  ZINC000027473870    0.0800
     40 H40       -15.6043   -3.5754   53.0902 H       1  ZINC000027473870    0.1300
     41 H41       -15.6305   -2.0264   51.1798 H       1  ZINC000027473870    0.1500
     42 H42       -12.3818    1.8855   48.9913 H       1  ZINC000027473870    0.0800
     43 H43       -13.7099    0.9606   48.2504 H       1  ZINC000027473870    0.0800
     44 H44       -14.3560    3.3307   48.5882 H       1  ZINC000027473870    0.0700
     45 H45       -15.3531    2.2478   49.5889 H       1  ZINC000027473870    0.0600
     46 H46       -14.0250    3.1726   50.3299 H       1  ZINC000027473870    0.0600
     47 H47       -12.5434    0.4308   52.2031 H       1  ZINC000027473870    0.0800
     48 H48       -12.7985    2.0880   51.6056 H       1  ZINC000027473870    0.0900
     49 H49       -14.5106    1.7331   53.2390 H       1  ZINC000027473870    0.0700
     50 H50       -15.3184    1.5522   51.6632 H       1  ZINC000027473870    0.0700
     51 H51       -14.8794    0.1097   52.6091 H       1  ZINC000027473870    0.0600
     52 H52       -11.3806   -1.5631   51.5221 H       1  ZINC000027473870    0.1300
     53 H53       -11.3773   -3.1103   53.4343 H       1  ZINC000027473870    0.1300
     54 H54       -15.4238   -3.6810   59.1897 H       1  ZINC000027473870    0.1900
     55 H55       -10.2552   -3.0177   60.8054 H       1  ZINC000027473870    0.1500
     56 H56        -8.7212   -1.6582   62.1673 H       1  ZINC000027473870    0.1500
     57 H57       -11.4407    1.6263   61.9616 H       1  ZINC000027473870    0.1500
     58 H58       -12.9761    0.2735   60.5943 H       1  ZINC000027473870    0.1400
@<TRIPOS>BOND
     1     1     2    1
     2     1    32    1
     3     1    33    1
     4     1    34    1
     5     2     3    1
     6     2    35    1
     7     2    36    1
     8     3    24    1
     9     3     4    2
    10     4     5    1
    11     4    22    1
    12     5     6    2
    13     5     7   am
    14     7     8    1
    15     7    37    1
    16     8     9    1
    17     8    38    1
    18     8    39    1
    19     9    21   ar
    20     9    10   ar
    21    10    11   ar
    22    10    40    1
    23    11    12   ar
    24    11    41    1
    25    12    13    1
    26    12    20   ar
    27    13    14    2
    28    13    15   am
    29    15    16    1
    30    15    18    1
    31    16    17    1
    32    16    42    1
    33    16    43    1
    34    17    44    1
    35    17    45    1
    36    17    46    1
    37    18    19    1
    38    18    47    1
    39    18    48    1
    40    19    49    1
    41    19    50    1
    42    19    51    1
    43    20    21   ar
    44    20    52    1
    45    21    53    1
    46    22    23    2
    47    22    54    1
    48    23    24    1
    49    24    25    1
    50    25    31   ar
    51    25    26   ar
    52    26    27   ar
    53    26    55    1
    54    27    28   ar
    55    27    56    1
    56    28    29    1
    57    28    30   ar
    58    30    31   ar
    59    30    57    1
    60    31    58    1
@<TRIPOS>SUBSTRUCTURE
     1 ZINC000027473870        1 TEMP              0 ****  ****    0 ROOT


##########                                Name:    ZINC000745364361
##########                DOCK_Rotatable_Bonds:                   8
##########                         Heavy_Atoms:                  29
##########                    Molecular_Weight:             398.434
##########                DOCK_Rotatable_Bonds:                   8
##########                       Formal_Charge:          0.00999923
##########                     HBond_Acceptors:                   7
##########                        HBond_Donors:                   1
##########                         Heavy_Atoms:                  29
##########                          Grid_Score:          -35.950878
##########                     Grid_vdw_energy:          -34.870056
##########                      Grid_es_energy:           -1.080821
##########           Internal_energy_repulsive:           11.834529

@<TRIPOS>MOLECULE
ZINC000745364361
 52 54 1 0 0
SMALL
USER_CHARGES


@<TRIPOS>ATOM
      1 C1        -13.3872   -5.0328   56.6895 C.3     1  ZINC000745364361   -0.1700
      2 C2        -13.0731   -3.5532   56.4594 C.3     1  ZINC000745364361    0.0700
      3 H3        -14.0039   -2.9978   56.3445 H       1  ZINC000745364361    0.1100
      4 O4        -12.2723   -3.4096   55.2567 O.3     1  ZINC000745364361   -0.3200
      5 C5        -12.6635   -2.4795   54.3716 C.2     1  ZINC000745364361    0.4700
      6 O6        -13.5319   -1.6927   54.6660 O.2     1  ZINC000745364361   -0.4900
      7 C7        -12.0194   -2.4164   53.0106 C.3     1  ZINC000745364361   -0.0400
      8 H8        -11.6520   -3.4052   52.7362 H       1  ZINC000745364361    0.1200
      9 C9        -13.0498   -1.9511   51.9798 C.3     1  ZINC000745364361   -0.1400
     10 C10       -10.8683   -1.4443   53.0442 C.ar    1  ZINC000745364361   -0.0500
     11 C11       -10.9701   -0.2780   53.7790 C.ar    1  ZINC000745364361   -0.1000
     12 C12        -9.9149    0.6148   53.8107 C.ar    1  ZINC000745364361   -0.0900
     13 C13        -8.7569    0.3419   53.1079 C.ar    1  ZINC000745364361   -0.1500
     14 C14        -8.6535   -0.8266   52.3718 C.ar    1  ZINC000745364361    0.1000
     15 F15        -7.5219   -1.0943   51.6842 F       1  ZINC000745364361   -0.1400
     16 C16        -9.7088   -1.7221   52.3449 C.ar    1  ZINC000745364361   -0.1400
     17 C17       -12.3080   -3.0126   57.6398 C.2     1  ZINC000745364361    0.5200
     18 O18       -11.3070   -3.5793   58.0248 O.2     1  ZINC000745364361   -0.5000
     19 N19       -12.7359   -1.8995   58.2678 N.am    1  ZINC000745364361   -0.6700
     20 C20       -12.0247   -1.3971   59.3650 C.ar    1  ZINC000745364361    0.1200
     21 C21       -12.5662   -1.4814   60.6410 C.ar    1  ZINC000745364361   -0.1100
     22 C22       -11.8654   -0.9862   61.7223 C.ar    1  ZINC000745364361   -0.1400
     23 C23       -10.6186   -0.4042   61.5342 C.ar    1  ZINC000745364361    0.1500
     24 N24        -9.9077    0.0986   62.6313 N.am    1  ZINC000745364361   -0.5600
     25 C25       -10.2199    1.3606   63.3125 C.3     1  ZINC000745364361    0.0900
     26 C26        -9.4929    1.2851   64.6734 C.3     1  ZINC000745364361   -0.1300
     27 C27        -8.3387    0.3050   64.3605 C.3     1  ZINC000745364361   -0.1500
     28 C28        -8.8554   -0.5155   63.1992 C.2     1  ZINC000745364361    0.5200
     29 O29        -8.3842   -1.5703   62.8297 O.2     1  ZINC000745364361   -0.5100
     30 C30       -10.0765   -0.3212   60.2584 C.ar    1  ZINC000745364361   -0.1400
     31 C31       -10.7757   -0.8198   59.1775 C.ar    1  ZINC000745364361   -0.0900
     32 H32       -13.9406   -5.4238   55.8357 H       1  ZINC000745364361    0.0800
     33 H33       -12.4563   -5.5882   56.8043 H       1  ZINC000745364361    0.0800
     34 H34       -13.9883   -5.1405   57.5923 H       1  ZINC000745364361    0.0800
     35 H35       -13.4172   -0.9622   52.2541 H       1  ZINC000745364361    0.0700
     36 H36       -12.5840   -1.9054   50.9954 H       1  ZINC000745364361    0.0800
     37 H37       -13.8824   -2.6541   51.9554 H       1  ZINC000745364361    0.0800
     38 H38       -11.8749   -0.0637   54.3283 H       1  ZINC000745364361    0.1300
     39 H39        -9.9957    1.5260   54.3849 H       1  ZINC000745364361    0.1400
     40 H40        -7.9331    1.0397   53.1323 H       1  ZINC000745364361    0.1400
     41 H41        -9.6291   -2.6339   51.7716 H       1  ZINC000745364361    0.1400
     42 H42       -13.5364   -1.4464   57.9601 H       1  ZINC000745364361    0.4100
     43 H43       -13.5358   -1.9340   60.7874 H       1  ZINC000745364361    0.1300
     44 H44       -12.2868   -1.0511   62.7146 H       1  ZINC000745364361    0.1600
     45 H45        -9.8474    2.2047   62.7322 H       1  ZINC000745364361    0.0800
     46 H46       -11.2955    1.4514   63.4640 H       1  ZINC000745364361    0.0900
     47 H47        -9.1070    2.2621   64.9642 H       1  ZINC000745364361    0.1000
     48 H48       -10.1493    0.8814   65.4444 H       1  ZINC000745364361    0.0900
     49 H49        -7.4400    0.8523   64.0759 H       1  ZINC000745364361    0.1100
     50 H50        -8.1398   -0.3368   65.2187 H       1  ZINC000745364361    0.1100
     51 H51        -9.1068    0.1312   60.1120 H       1  ZINC000745364361    0.1300
     52 H52       -10.3541   -0.7552   58.1853 H       1  ZINC000745364361    0.1400
@<TRIPOS>BOND
     1     1     2    1
     2     1    32    1
     3     1    33    1
     4     1    34    1
     5     2     3    1
     6     2     4    1
     7     2    17    1
     8     4     5    1
     9     5     6    2
    10     5     7    1
    11     7     8    1
    12     7     9    1
    13     7    10    1
    14     9    35    1
    15     9    36    1
    16     9    37    1
    17    10    16   ar
    18    10    11   ar
    19    11    12   ar
    20    11    38    1
    21    12    13   ar
    22    12    39    1
    23    13    14   ar
    24    13    40    1
    25    14    15    1
    26    14    16   ar
    27    16    41    1
    28    17    18    2
    29    17    19   am
    30    19    20    1
    31    19    42    1
    32    20    31   ar
    33    20    21   ar
    34    21    22   ar
    35    21    43    1
    36    22    23   ar
    37    22    44    1
    38    23    24    1
    39    23    30   ar
    40    24    28   am
    41    24    25    1
    42    25    26    1
    43    25    45    1
    44    25    46    1
    45    26    27    1
    46    26    47    1
    47    26    48    1
    48    27    28    1
    49    27    49    1
    50    27    50    1
    51    28    29    2
    52    30    31   ar
    53    30    51    1
    54    31    52    1
@<TRIPOS>SUBSTRUCTURE
     1 ZINC000745364361        1 TEMP              0 ****  ****    0 ROOT


##########                                Name:    ZINC000457806032
##########                DOCK_Rotatable_Bonds:                   8
##########                         Heavy_Atoms:                  24
##########                    Molecular_Weight:             387.911
##########                DOCK_Rotatable_Bonds:                   8
##########                       Formal_Charge:        -1.49012e-07
##########                     HBond_Acceptors:                   9
##########                        HBond_Donors:                   2
##########                         Heavy_Atoms:                  24
##########                          Grid_Score:          -35.817078
##########                     Grid_vdw_energy:          -34.054493
##########                      Grid_es_energy:           -1.762586
##########           Internal_energy_repulsive:            5.426432

@<TRIPOS>MOLECULE
ZINC000457806032
 42 43 1 0 0
SMALL
USER_CHARGES


@<TRIPOS>ATOM
      1 C1        -13.2132    1.5312   49.4156 C.3     1  ZINC000457806032    0.0800
      2 N2        -14.4527    0.7634   49.5590 N.am    1  ZINC000457806032   -1.0100
      3 C3        -15.6185    1.3689   50.2075 C.3     1  ZINC000457806032    0.0900
      4 S4        -14.5360   -0.7887   48.9879 S.o2    1  ZINC000457806032    2.7900
      5 O5        -15.7919   -1.3040   49.4081 O.2     1  ZINC000457806032   -0.9700
      6 O6        -14.1333   -0.7374   47.6261 O.2     1  ZINC000457806032   -0.9700
      7 N7        -13.3800   -1.6669   49.7847 N.am    1  ZINC000457806032   -1.1300
      8 C8        -13.4271   -1.7861   51.2441 C.3     1  ZINC000457806032    0.1100
      9 C9        -12.0161   -2.0324   51.7815 C.3     1  ZINC000457806032    0.1100
     10 N10       -12.0820   -2.3072   53.2190 N.am    1  ZINC000457806032   -0.7300
     11 C11       -12.0510   -3.5789   53.6642 C.2     1  ZINC000457806032    0.5800
     12 O12       -11.9668   -4.4985   52.8725 O.2     1  ZINC000457806032   -0.5300
     13 C13       -12.1191   -3.8551   55.1089 C.2     1  ZINC000457806032   -0.1500
     14 C14       -12.8810   -4.8525   55.6385 C.2     1  ZINC000457806032   -0.2200
     15 S15       -12.7235   -4.8882   57.3369 S.3     1  ZINC000457806032    0.2400
     16 C16       -11.6089   -3.5304   57.3197 C.2     1  ZINC000457806032   -0.1700
     17 C17       -10.9836   -2.9304   58.5181 C.ar    1  ZINC000457806032   -0.0100
     18 C18       -11.4903   -1.7456   59.0535 C.ar    1  ZINC000457806032   -0.0900
     19 C19       -10.9030   -1.1904   60.1715 C.ar    1  ZINC000457806032   -0.1000
     20 C20        -9.8125   -1.8063   60.7619 C.ar    1  ZINC000457806032   -0.0300
     21 Cl21       -9.0782   -1.1016   62.1683 Cl      1  ZINC000457806032   -0.0600
     22 C22        -9.3056   -2.9823   60.2354 C.ar    1  ZINC000457806032   -0.1000
     23 C23        -9.8883   -3.5498   59.1211 C.ar    1  ZINC000457806032   -0.1000
     24 C24       -11.4041   -3.1220   56.0574 C.2     1  ZINC000457806032   -0.0700
     25 H25       -12.5825    1.3695   50.2898 H       1  ZINC000457806032    0.0600
     26 H26       -12.6844    1.2037   48.5205 H       1  ZINC000457806032    0.0800
     27 H27       -13.4505    2.5916   49.3299 H       1  ZINC000457806032    0.0800
     28 H28       -16.2309    1.8711   49.4587 H       1  ZINC000457806032    0.0600
     29 H29       -16.2065    0.5921   50.6964 H       1  ZINC000457806032    0.0700
     30 H30       -15.2854    2.0939   50.9501 H       1  ZINC000457806032    0.0700
     31 H31       -12.6717   -2.1023   49.2851 H       1  ZINC000457806032    0.4200
     32 H32       -13.8229   -0.8646   51.6713 H       1  ZINC000457806032    0.0700
     33 H33       -14.0719   -2.6206   51.5198 H       1  ZINC000457806032    0.0900
     34 H34       -11.5758   -2.8873   51.2681 H       1  ZINC000457806032    0.0800
     35 H35       -11.4018   -1.1488   51.6082 H       1  ZINC000457806032    0.0800
     36 H36       -12.1479   -1.5738   53.8505 H       1  ZINC000457806032    0.4000
     37 H37       -13.4985   -5.5265   55.0635 H       1  ZINC000457806032    0.1700
     38 H38       -12.3405   -1.2639   58.5934 H       1  ZINC000457806032    0.1400
     39 H39       -11.2943   -0.2735   60.5868 H       1  ZINC000457806032    0.1400
     40 H40        -8.4548   -3.4582   60.7001 H       1  ZINC000457806032    0.1400
     41 H41        -9.4923   -4.4673   58.7115 H       1  ZINC000457806032    0.1300
     42 H42       -10.7538   -2.2987   55.8007 H       1  ZINC000457806032    0.1600
@<TRIPOS>BOND
     1     1     2    1
     2     1    25    1
     3     1    26    1
     4     1    27    1
     5     2     3    1
     6     2     4   am
     7     3    28    1
     8     3    29    1
     9     3    30    1
    10     4     5    2
    11     4     6    2
    12     4     7   am
    13     7     8    1
    14     7    31    1
    15     8     9    1
    16     8    32    1
    17     8    33    1
    18     9    10    1
    19     9    34    1
    20     9    35    1
    21    10    11   am
    22    10    36    1
    23    11    12    2
    24    11    13    1
    25    13    24    1
    26    13    14    2
    27    14    15    1
    28    14    37    1
    29    15    16    1
    30    16    17    1
    31    16    24    2
    32    17    23   ar
    33    17    18   ar
    34    18    19   ar
    35    18    38    1
    36    19    20   ar
    37    19    39    1
    38    20    21    1
    39    20    22   ar
    40    22    23   ar
    41    22    40    1
    42    23    41    1
    43    24    42    1
@<TRIPOS>SUBSTRUCTURE
     1 ZINC000457806032        1 TEMP              0 ****  ****    0 ROOT


##########                                Name:    ZINC000373715094
##########                DOCK_Rotatable_Bonds:                   6
##########                         Heavy_Atoms:                  27
##########                    Molecular_Weight:             362.431
##########                DOCK_Rotatable_Bonds:                   6
##########                       Formal_Charge:           0.0299999
##########                     HBond_Acceptors:                   6
##########                        HBond_Donors:                   2
##########                         Heavy_Atoms:                  27
##########                          Grid_Score:          -35.780804
##########                     Grid_vdw_energy:          -34.463631
##########                      Grid_es_energy:           -1.317174
##########           Internal_energy_repulsive:           13.367075

@<TRIPOS>MOLECULE
ZINC000373715094
 49 52 1 0 0
SMALL
USER_CHARGES


@<TRIPOS>ATOM
      1 C1        -14.2652   -0.1407   53.8171 C.3     1  ZINC000373715094    0.0900
      2 N2        -13.0351   -0.6099   53.1743 N.am    1  ZINC000373715094   -0.6100
      3 C3        -11.7996   -0.2030   53.5128 C.2     1  ZINC000373715094    0.5200
      4 O4        -11.5480    0.6038   54.3827 O.2     1  ZINC000373715094   -0.5200
      5 C5        -10.7685   -0.8979   52.6510 C.3     1  ZINC000373715094   -0.1600
      6 C6        -11.5343   -2.0889   52.0297 C.3     1  ZINC000373715094   -0.1000
      7 H7        -11.2159   -2.2640   51.0021 H       1  ZINC000373715094    0.1100
      8 C8        -11.3623   -3.3520   52.8759 C.3     1  ZINC000373715094    0.1300
      9 N9        -11.7432   -3.0670   54.2615 N.am    1  ZINC000373715094   -0.7300
     10 C10       -12.5224   -3.9340   54.9380 C.2     1  ZINC000373715094    0.5200
     11 O11       -12.9072   -4.9507   54.4001 O.2     1  ZINC000373715094   -0.5200
     12 C12       -12.9157   -3.6400   56.3628 C.3     1  ZINC000373715094   -0.0600
     13 C13       -11.7505   -3.9261   57.2747 C.2     1  ZINC000373715094    0.1200
     14 N14       -11.2513   -5.1001   57.5370 N.2     1  ZINC000373715094   -0.2300
     15 N15       -10.1773   -4.9782   58.4246 N.pl3   1  ZINC000373715094   -0.5100
     16 C16        -9.9981   -3.6547   58.7320 C.ar    1  ZINC000373715094    0.1300
     17 C17        -9.1013   -2.9659   59.5444 C.ar    1  ZINC000373715094   -0.1400
     18 C18        -9.1814   -1.6056   59.6450 C.ar    1  ZINC000373715094   -0.0700
     19 C19       -10.1496   -0.8961   58.9456 C.ar    1  ZINC000373715094   -0.1600
     20 C20       -11.0419   -1.5446   58.1417 C.ar    1  ZINC000373715094   -0.0400
     21 C21       -10.9761   -2.9364   58.0167 C.ar    1  ZINC000373715094   -0.1600
     22 C22       -12.9934   -1.5895   52.0821 C.3     1  ZINC000373715094    0.1800
     23 H23       -13.6691   -2.4196   52.2879 H       1  ZINC000373715094    0.1000
     24 C24       -13.3645   -0.9259   50.7809 C.ar    1  ZINC000373715094   -0.1000
     25 C25       -14.0718   -1.6289   49.8237 C.ar    1  ZINC000373715094   -0.1000
     26 C26       -14.4122   -1.0202   48.6302 C.ar    1  ZINC000373715094   -0.1200
     27 C27       -14.0456    0.2916   48.3941 C.ar    1  ZINC000373715094   -0.1100
     28 C28       -13.3391    0.9949   49.3518 C.ar    1  ZINC000373715094   -0.1200
     29 C29       -13.0024    0.3876   50.5470 C.ar    1  ZINC000373715094   -0.1100
     30 H30       -14.5023   -0.7863   54.6627 H       1  ZINC000373715094    0.0600
     31 H31       -14.1242    0.8814   54.1688 H       1  ZINC000373715094    0.0800
     32 H32       -15.0840   -0.1679   53.0982 H       1  ZINC000373715094    0.0700
     33 H33       -10.4087   -0.2271   51.8710 H       1  ZINC000373715094    0.1100
     34 H34        -9.9390   -1.2545   53.2614 H       1  ZINC000373715094    0.1100
     35 H35       -11.9979   -4.1440   52.4799 H       1  ZINC000373715094    0.0700
     36 H36       -10.3208   -3.6717   52.8438 H       1  ZINC000373715094    0.0800
     37 H37       -11.4344   -2.2545   54.6921 H       1  ZINC000373715094    0.4000
     38 H38       -13.1985   -2.5912   56.4526 H       1  ZINC000373715094    0.1200
     39 H39       -13.7601   -4.2693   56.6439 H       1  ZINC000373715094    0.1200
     40 H40        -9.6448   -5.7127   58.7679 H       1  ZINC000373715094    0.4400
     41 H41        -8.3443   -3.5055   60.0941 H       1  ZINC000373715094    0.1300
     42 H42        -8.4837   -1.0755   60.2764 H       1  ZINC000373715094    0.1300
     43 H43       -10.1968    0.1789   59.0391 H       1  ZINC000373715094    0.1300
     44 H44       -11.7917   -0.9858   57.6012 H       1  ZINC000373715094    0.1300
     45 H45       -14.3582   -2.6537   50.0081 H       1  ZINC000373715094    0.1200
     46 H46       -14.9642   -1.5696   47.8820 H       1  ZINC000373715094    0.1200
     47 H47       -14.3110    0.7669   47.4612 H       1  ZINC000373715094    0.1200
     48 H48       -13.0524    2.0196   49.1671 H       1  ZINC000373715094    0.1300
     49 H49       -12.4504    0.9370   51.2952 H       1  ZINC000373715094    0.1300
@<TRIPOS>BOND
     1     1     2    1
     2     1    30    1
     3     1    31    1
     4     1    32    1
     5     2    22    1
     6     2     3   am
     7     3     4    2
     8     3     5    1
     9     5     6    1
    10     5    33    1
    11     5    34    1
    12     6     7    1
    13     6     8    1
    14     6    22    1
    15     8     9    1
    16     8    35    1
    17     8    36    1
    18     9    10   am
    19     9    37    1
    20    10    11    2
    21    10    12    1
    22    12    13    1
    23    12    38    1
    24    12    39    1
    25    13    21    1
    26    13    14    2
    27    14    15    1
    28    15    16    1
    29    15    40    1
    30    16    21   ar
    31    16    17   ar
    32    17    18   ar
    33    17    41    1
    34    18    19   ar
    35    18    42    1
    36    19    20   ar
    37    19    43    1
    38    20    21   ar
    39    20    44    1
    40    22    23    1
    41    22    24    1
    42    24    29   ar
    43    24    25   ar
    44    25    26   ar
    45    25    45    1
    46    26    27   ar
    47    26    46    1
    48    27    28   ar
    49    27    47    1
    50    28    29   ar
    51    28    48    1
    52    29    49    1
@<TRIPOS>SUBSTRUCTURE
     1 ZINC000373715094        1 TEMP              0 ****  ****    0 ROOT


##########                                Name:    ZINC001408567397
##########                DOCK_Rotatable_Bonds:                   9
##########                         Heavy_Atoms:                  24
##########                    Molecular_Weight:             336.434
##########                DOCK_Rotatable_Bonds:                   9
##########                       Formal_Charge:          -0.0199996
##########                     HBond_Acceptors:                   7
##########                        HBond_Donors:                   2
##########                         Heavy_Atoms:                  24
##########                          Grid_Score:          -35.742935
##########                     Grid_vdw_energy:          -35.483719
##########                      Grid_es_energy:           -0.259218
##########           Internal_energy_repulsive:           17.513700

@<TRIPOS>MOLECULE
ZINC001408567397
 52 53 1 0 0
SMALL
USER_CHARGES


@<TRIPOS>ATOM
      1 C1         -9.9577   -3.6544   59.1168 C.3     1  ZINC001408567397   -0.0800
      2 C2         -9.7137   -2.6889   60.2479 C.2     1  ZINC001408567397    0.0900
      3 N3         -8.8319   -2.8338   61.2035 N.2     1  ZINC001408567397   -0.2900
      4 N4         -8.9198   -1.7229   62.0523 N.pl3   1  ZINC001408567397   -0.4700
      5 C5         -9.8834   -0.9090   61.5728 C.2     1  ZINC001408567397    0.1100
      6 C6        -10.3170    0.4039   62.1721 C.3     1  ZINC001408567397   -0.1000
      7 C7        -10.3867   -1.4802   60.4541 C.2     1  ZINC001408567397   -0.2200
      8 C8        -11.4845   -0.9178   59.5884 C.3     1  ZINC001408567397   -0.0600
      9 C9        -12.7831   -1.6116   59.9099 C.2     1  ZINC001408567397    0.5100
     10 O10       -13.1476   -1.7126   61.0622 O.2     1  ZINC001408567397   -0.5300
     11 N11       -13.5395   -2.1200   58.9169 N.am    1  ZINC001408567397   -0.7300
     12 C12       -14.8027   -2.7930   59.2294 C.3     1  ZINC001408567397    0.1100
     13 C13       -15.4430   -3.3016   57.9363 C.3     1  ZINC001408567397    0.1000
     14 N14       -14.4293   -3.9769   57.1222 N.am    1  ZINC001408567397   -0.6200
     15 C15       -13.9728   -5.3204   57.4869 C.3     1  ZINC001408567397    0.0700
     16 C16       -13.9166   -3.3622   56.0379 C.2     1  ZINC001408567397    0.5100
     17 O17       -14.2933   -2.2494   55.7370 O.2     1  ZINC001408567397   -0.5300
     18 C18       -12.8751   -4.0576   55.1996 C.3     1  ZINC001408567397   -0.1300
     19 C19       -12.4581   -3.1454   54.0442 C.3     1  ZINC001408567397   -0.1100
     20 H20       -13.3445   -2.6938   53.5985 H       1  ZINC001408567397    0.0900
     21 C21       -11.5320   -2.0443   54.5698 C.3     1  ZINC001408567397   -0.1200
     22 C22       -11.0594   -1.1851   53.3931 C.3     1  ZINC001408567397   -0.1600
     23 C23       -10.3694   -2.0812   52.3615 C.3     1  ZINC001408567397    0.0600
     24 O24       -11.2753   -3.1018   51.9372 O.3     1  ZINC001408567397   -0.3800
     25 C25       -11.7154   -3.9662   52.9867 C.3     1  ZINC001408567397    0.0600
     26 H26        -9.3135   -3.3988   58.2755 H       1  ZINC001408567397    0.0800
     27 H27        -9.7350   -4.6681   59.4499 H       1  ZINC001408567397    0.0700
     28 H28       -11.0010   -3.5947   58.8068 H       1  ZINC001408567397    0.0800
     29 H29        -8.3829   -1.5665   62.8450 H       1  ZINC001408567397    0.4400
     30 H30        -9.7221    1.2118   61.7463 H       1  ZINC001408567397    0.0800
     31 H31       -11.3709    0.5736   61.9517 H       1  ZINC001408567397    0.0900
     32 H32       -10.1717    0.3759   63.2521 H       1  ZINC001408567397    0.0700
     33 H33       -11.5865    0.1504   59.7791 H       1  ZINC001408567397    0.1000
     34 H34       -11.2375   -1.0776   58.5388 H       1  ZINC001408567397    0.1000
     35 H35       -13.2473   -2.0405   57.9954 H       1  ZINC001408567397    0.4000
     36 H36       -14.6112   -3.6343   59.8954 H       1  ZINC001408567397    0.0700
     37 H37       -15.4780   -2.0899   59.7171 H       1  ZINC001408567397    0.0700
     38 H38       -16.2414   -4.0031   58.1777 H       1  ZINC001408567397    0.0800
     39 H39       -15.8547   -2.4601   57.3792 H       1  ZINC001408567397    0.0900
     40 H40       -14.6003   -6.0634   56.9948 H       1  ZINC001408567397    0.0600
     41 H41       -12.9382   -5.4512   57.1697 H       1  ZINC001408567397    0.0800
     42 H42       -14.0402   -5.4462   58.5675 H       1  ZINC001408567397    0.0800
     43 H43       -12.0050   -4.2846   55.8155 H       1  ZINC001408567397    0.1000
     44 H44       -13.2891   -4.9834   54.8002 H       1  ZINC001408567397    0.1000
     45 H45       -12.0735   -1.4215   55.2818 H       1  ZINC001408567397    0.0700
     46 H46       -10.6700   -2.4963   55.0605 H       1  ZINC001408567397    0.0600
     47 H47       -11.9170   -0.6938   52.9332 H       1  ZINC001408567397    0.0700
     48 H48       -10.3562   -0.4328   53.7506 H       1  ZINC001408567397    0.0700
     49 H49       -10.0689   -1.4817   51.5022 H       1  ZINC001408567397    0.0900
     50 H50        -9.4887   -2.5406   52.8103 H       1  ZINC001408567397    0.0500
     51 H51       -10.8529   -4.4507   53.4444 H       1  ZINC001408567397    0.0400
     52 H52       -12.3835   -4.7240   52.5773 H       1  ZINC001408567397    0.1100
@<TRIPOS>BOND
     1     1     2    1
     2     1    26    1
     3     1    27    1
     4     1    28    1
     5     2     7    1
     6     2     3    2
     7     3     4    1
     8     4     5    1
     9     4    29    1
    10     5     6    1
    11     5     7    2
    12     6    30    1
    13     6    31    1
    14     6    32    1
    15     7     8    1
    16     8     9    1
    17     8    33    1
    18     8    34    1
    19     9    10    2
    20     9    11   am
    21    11    12    1
    22    11    35    1
    23    12    13    1
    24    12    36    1
    25    12    37    1
    26    13    14    1
    27    13    38    1
    28    13    39    1
    29    14    15    1
    30    14    16   am
    31    15    40    1
    32    15    41    1
    33    15    42    1
    34    16    17    2
    35    16    18    1
    36    18    19    1
    37    18    43    1
    38    18    44    1
    39    19    20    1
    40    19    25    1
    41    19    21    1
    42    21    22    1
    43    21    45    1
    44    21    46    1
    45    22    23    1
    46    22    47    1
    47    22    48    1
    48    23    24    1
    49    23    49    1
    50    23    50    1
    51    24    25    1
    52    25    51    1
    53    25    52    1
@<TRIPOS>SUBSTRUCTURE
     1 ZINC001408567397        1 TEMP              0 ****  ****    0 ROOT


##########                                Name:    ZINC000004313955
##########                DOCK_Rotatable_Bonds:                   6
##########                         Heavy_Atoms:                  26
##########                    Molecular_Weight:             414.358
##########                DOCK_Rotatable_Bonds:                   6
##########                       Formal_Charge:           0.0299997
##########                     HBond_Acceptors:                   9
##########                        HBond_Donors:                   2
##########                         Heavy_Atoms:                  26
##########                          Grid_Score:          -35.722816
##########                     Grid_vdw_energy:          -35.201172
##########                      Grid_es_energy:           -0.521643
##########           Internal_energy_repulsive:           12.954711

@<TRIPOS>MOLECULE
ZINC000004313955
 47 49 1 0 0
SMALL
USER_CHARGES


@<TRIPOS>ATOM
      1 C1        -14.5270   -0.5981   53.5559 C.3     1  ZINC000004313955   -0.1500
      2 C2        -13.9229   -1.7636   54.3418 C.3     1  ZINC000004313955   -0.1100
      3 H3        -13.2273   -1.3781   55.0871 H       1  ZINC000004313955    0.0800
      4 C4        -13.1789   -2.6953   53.3823 C.3     1  ZINC000004313955   -0.1100
      5 C5        -12.5465   -3.8438   54.1717 C.3     1  ZINC000004313955   -0.1100
      6 H6        -11.9972   -4.4941   53.4908 H       1  ZINC000004313955    0.0900
      7 C7        -11.5877   -3.2758   55.2202 C.3     1  ZINC000004313955   -0.1500
      8 C8        -13.6492   -4.6474   54.8682 C.3     1  ZINC000004313955    0.1200
      9 N9        -14.4602   -3.7311   55.6814 N.am    1  ZINC000004313955   -0.6000
     10 C10       -14.6670   -3.9749   56.9907 C.2     1  ZINC000004313955    0.5400
     11 O11       -14.1828   -4.9592   57.5080 O.2     1  ZINC000004313955   -0.5300
     12 C12       -15.4999   -3.0245   57.8117 C.3     1  ZINC000004313955   -0.1400
     13 S13       -15.2582   -3.3759   59.5708 S.3     1  ZINC000004313955    0.0800
     14 C14       -13.7606   -2.4925   59.8562 C.2     1  ZINC000004313955    0.1100
     15 N15       -12.9295   -2.0504   58.9392 N.2     1  ZINC000004313955   -0.2800
     16 N16       -11.9387   -1.4491   59.4946 N.2     1  ZINC000004313955   -0.2400
     17 C17       -12.0762   -1.4703   60.7999 C.2     1  ZINC000004313955    0.2500
     18 C18       -11.1478   -0.8858   61.7907 C.ar    1  ZINC000004313955   -0.0100
     19 C19       -11.5898    0.1104   62.6624 C.ar    1  ZINC000004313955   -0.0700
     20 C20       -10.7188    0.6522   63.5849 C.ar    1  ZINC000004313955   -0.1100
     21 C21        -9.4081    0.2103   63.6473 C.ar    1  ZINC000004313955   -0.0100
     22 Cl22       -8.3186    0.8981   64.8108 Cl      1  ZINC000004313955   -0.0500
     23 C23        -8.9627   -0.7781   62.7858 C.ar    1  ZINC000004313955   -0.1100
     24 C24        -9.8260   -1.3323   61.8621 C.ar    1  ZINC000004313955    0.0100
     25 Cl25       -9.2666   -2.5713   60.7825 Cl      1  ZINC000004313955   -0.0100
     26 N26       -13.2500   -2.1345   61.0715 N.pl3   1  ZINC000004313955   -0.3000
     27 N27       -13.7886   -2.3897   62.3007 N.3     1  ZINC000004313955   -0.5800
     28 C28       -15.0411   -2.5431   55.0408 C.3     1  ZINC000004313955    0.1100
     29 H29       -15.0578    0.0646   54.2394 H       1  ZINC000004313955    0.0600
     30 H30       -13.7312   -0.0445   53.0577 H       1  ZINC000004313955    0.0600
     31 H31       -15.2226   -0.9841   52.8107 H       1  ZINC000004313955    0.0600
     32 H32       -13.8798   -3.0994   52.6519 H       1  ZINC000004313955    0.0700
     33 H33       -12.3984   -2.1366   52.8657 H       1  ZINC000004313955    0.0700
     34 H34       -12.1377   -2.6265   55.9014 H       1  ZINC000004313955    0.0600
     35 H35       -11.1376   -4.0941   55.7820 H       1  ZINC000004313955    0.0600
     36 H36       -10.8051   -2.7021   54.7238 H       1  ZINC000004313955    0.0600
     37 H37       -14.2797   -5.1274   54.1198 H       1  ZINC000004313955    0.0700
     38 H38       -13.1993   -5.4048   55.5102 H       1  ZINC000004313955    0.1000
     39 H39       -15.1954   -1.9994   57.6008 H       1  ZINC000004313955    0.1300
     40 H40       -16.5522   -3.1507   57.5572 H       1  ZINC000004313955    0.1300
     41 H41       -12.6117    0.4567   62.6147 H       1  ZINC000004313955    0.1600
     42 H42       -11.0602    1.4232   64.2599 H       1  ZINC000004313955    0.1500
     43 H43        -7.9393   -1.1186   62.8392 H       1  ZINC000004313955    0.1500
     44 H44       -14.1837   -1.5530   62.7031 H       1  ZINC000004313955    0.3700
     45 H45       -14.4770   -3.1256   62.2481 H       1  ZINC000004313955    0.3800
     46 H46       -15.5097   -1.9128   55.7966 H       1  ZINC000004313955    0.0900
     47 H47       -15.7853   -2.8510   54.3063 H       1  ZINC000004313955    0.0800
@<TRIPOS>BOND
     1     1     2    1
     2     1    29    1
     3     1    30    1
     4     1    31    1
     5     2     3    1
     6     2    28    1
     7     2     4    1
     8     4     5    1
     9     4    32    1
    10     4    33    1
    11     5     6    1
    12     5     7    1
    13     5     8    1
    14     7    34    1
    15     7    35    1
    16     7    36    1
    17     8     9    1
    18     8    37    1
    19     8    38    1
    20     9    10   am
    21     9    28    1
    22    10    11    2
    23    10    12    1
    24    12    13    1
    25    12    39    1
    26    12    40    1
    27    13    14    1
    28    14    26    1
    29    14    15    2
    30    15    16    1
    31    16    17    2
    32    17    18    1
    33    17    26    1
    34    18    24   ar
    35    18    19   ar
    36    19    20   ar
    37    19    41    1
    38    20    21   ar
    39    20    42    1
    40    21    22    1
    41    21    23   ar
    42    23    24   ar
    43    23    43    1
    44    24    25    1
    45    26    27    1
    46    27    44    1
    47    27    45    1
    48    28    46    1
    49    28    47    1
@<TRIPOS>SUBSTRUCTURE
     1 ZINC000004313955        1 TEMP              0 ****  ****    0 ROOT


##########                                Name:    ZINC000002634904
##########                DOCK_Rotatable_Bonds:                   7
##########                         Heavy_Atoms:                  31
##########                    Molecular_Weight:             423.498
##########                DOCK_Rotatable_Bonds:                   7
##########                       Formal_Charge:        -7.45058e-08
##########                     HBond_Acceptors:                   7
##########                        HBond_Donors:                   1
##########                         Heavy_Atoms:                  31
##########                          Grid_Score:          -35.716080
##########                     Grid_vdw_energy:          -35.535030
##########                      Grid_es_energy:           -0.181049
##########           Internal_energy_repulsive:            9.365763

@<TRIPOS>MOLECULE
ZINC000002634904
 48 51 1 0 0
SMALL
USER_CHARGES


@<TRIPOS>ATOM
      1 N1         -6.7358    4.0084   56.0454 N.1     1  ZINC000002634904   -0.4100
      2 C2         -7.2175    3.1738   55.4441 C.1     1  ZINC000002634904    0.2500
      3 C3         -7.8247    2.1214   54.6860 C.ar    1  ZINC000002634904   -0.0400
      4 C4         -8.6053    1.1560   55.3280 C.ar    1  ZINC000002634904   -0.0500
      5 C5         -9.1876    0.1456   54.5959 C.ar    1  ZINC000002634904   -0.1400
      6 C6         -8.9997    0.0850   53.2189 C.ar    1  ZINC000002634904    0.1700
      7 N7         -9.5915   -0.9404   52.4802 N.am    1  ZINC000002634904   -0.6700
      8 C8        -10.9093   -1.1908   52.6105 C.2     1  ZINC000002634904    0.5400
      9 O9        -11.5809   -0.5252   53.3699 O.2     1  ZINC000002634904   -0.5000
     10 C10       -11.5483   -2.2982   51.8127 C.3     1  ZINC000002634904   -0.1700
     11 S11       -11.2782   -3.8793   52.6513 S.3     1  ZINC000002634904    0.1300
     12 C12       -11.9285   -3.4963   54.2435 C.ar    1  ZINC000002634904    0.2100
     13 N13       -13.2348   -3.3029   54.3868 N.ar    1  ZINC000002634904   -0.2900
     14 N14       -13.7539   -3.0212   55.5302 N.ar    1  ZINC000002634904   -0.1600
     15 C15       -12.9869   -2.9152   56.6102 C.ar    1  ZINC000002634904    0.0600
     16 C16       -13.5827   -2.5914   57.9275 C.ar    1  ZINC000002634904   -0.0500
     17 C17       -14.0460   -3.6127   58.7563 C.ar    1  ZINC000002634904   -0.0800
     18 C18       -14.6000   -3.3049   59.9821 C.ar    1  ZINC000002634904   -0.1200
     19 C19       -14.6967   -1.9862   60.3890 C.ar    1  ZINC000002634904   -0.1000
     20 C20       -14.2390   -0.9688   59.5711 C.ar    1  ZINC000002634904   -0.1200
     21 C21       -13.6773   -1.2645   58.3458 C.ar    1  ZINC000002634904   -0.0800
     22 C22       -11.5977   -3.1160   56.4827 C.ar    1  ZINC000002634904    0.2300
     23 C23       -10.7055   -3.0074   57.6604 C.ar    1  ZINC000002634904   -0.0700
     24 C24       -10.4072   -1.7565   58.1997 C.ar    1  ZINC000002634904   -0.0700
     25 C25        -9.5759   -1.6617   59.2971 C.ar    1  ZINC000002634904   -0.1200
     26 C26        -9.0388   -2.8045   59.8621 C.ar    1  ZINC000002634904   -0.0900
     27 C27        -9.3306   -4.0483   59.3313 C.ar    1  ZINC000002634904   -0.1200
     28 C28       -10.1653   -4.1562   58.2377 C.ar    1  ZINC000002634904   -0.0700
     29 N29       -11.1061   -3.4108   55.2815 N.ar    1  ZINC000002634904   -0.4400
     30 C30        -8.2238    1.0443   52.5765 C.ar    1  ZINC000002634904   -0.1200
     31 C31        -7.6429    2.0607   53.3014 C.ar    1  ZINC000002634904   -0.0500
     32 H32        -8.7513    1.2022   56.3971 H       1  ZINC000002634904    0.1400
     33 H33        -9.7906   -0.6009   55.0913 H       1  ZINC000002634904    0.1400
     34 H34        -9.0543   -1.4728   51.8728 H       1  ZINC000002634904    0.4200
     35 H35       -12.6187   -2.1117   51.7249 H       1  ZINC000002634904    0.1300
     36 H36       -11.1029   -2.3335   50.8185 H       1  ZINC000002634904    0.1300
     37 H37       -13.9716   -4.6424   58.4394 H       1  ZINC000002634904    0.1300
     38 H38       -14.9590   -4.0949   60.6248 H       1  ZINC000002634904    0.1300
     39 H39       -15.1317   -1.7501   61.3489 H       1  ZINC000002634904    0.1300
     40 H40       -14.3172    0.0589   59.8941 H       1  ZINC000002634904    0.1300
     41 H41       -13.3200   -0.4694   57.7082 H       1  ZINC000002634904    0.1200
     42 H42       -10.8257   -0.8636   57.7592 H       1  ZINC000002634904    0.1300
     43 H43        -9.3439   -0.6934   59.7153 H       1  ZINC000002634904    0.1300
     44 H44        -8.3887   -2.7253   60.7209 H       1  ZINC000002634904    0.1300
     45 H45        -8.9081   -4.9369   59.7765 H       1  ZINC000002634904    0.1300
     46 H46       -10.3924   -5.1277   57.8242 H       1  ZINC000002634904    0.1300
     47 H47        -8.0805    0.9943   51.5072 H       1  ZINC000002634904    0.1500
     48 H48        -7.0410    2.8054   52.8020 H       1  ZINC000002634904    0.1400
@<TRIPOS>BOND
     1     1     2    3
     2     2     3    1
     3     3    31   ar
     4     3     4   ar
     5     4     5   ar
     6     4    32    1
     7     5     6   ar
     8     5    33    1
     9     6     7    1
    10     6    30   ar
    11     7     8   am
    12     7    34    1
    13     8     9    2
    14     8    10    1
    15    10    11    1
    16    10    35    1
    17    10    36    1
    18    11    12    1
    19    12    29   ar
    20    12    13   ar
    21    13    14   ar
    22    14    15   ar
    23    15    16    1
    24    15    22   ar
    25    16    21   ar
    26    16    17   ar
    27    17    18   ar
    28    17    37    1
    29    18    19   ar
    30    18    38    1
    31    19    20   ar
    32    19    39    1
    33    20    21   ar
    34    20    40    1
    35    21    41    1
    36    22    23    1
    37    22    29   ar
    38    23    28   ar
    39    23    24   ar
    40    24    25   ar
    41    24    42    1
    42    25    26   ar
    43    25    43    1
    44    26    27   ar
    45    26    44    1
    46    27    28   ar
    47    27    45    1
    48    28    46    1
    49    30    31   ar
    50    30    47    1
    51    31    48    1
@<TRIPOS>SUBSTRUCTURE
     1 ZINC000002634904        1 TEMP              0 ****  ****    0 ROOT


##########                                Name:    ZINC000811540126
##########                DOCK_Rotatable_Bonds:                   7
##########                         Heavy_Atoms:                  21
##########                    Molecular_Weight:             397.212
##########                DOCK_Rotatable_Bonds:                   7
##########                       Formal_Charge:           0.0100001
##########                     HBond_Acceptors:                   4
##########                        HBond_Donors:                   3
##########                         Heavy_Atoms:                  21
##########                          Grid_Score:          -35.671474
##########                     Grid_vdw_energy:          -33.633804
##########                      Grid_es_energy:           -2.037669
##########           Internal_energy_repulsive:           12.000764

@<TRIPOS>MOLECULE
ZINC000811540126
 37 38 1 0 0
SMALL
USER_CHARGES


@<TRIPOS>ATOM
      1 C1        -11.9779   -1.5074   60.7127 C.3     1  ZINC000811540126   -0.1600
      2 C2        -10.9753   -2.3106   59.8815 C.3     1  ZINC000811540126    0.1200
      3 H3        -10.8145   -3.2832   60.3466 H       1  ZINC000811540126    0.1000
      4 N4        -11.5025   -2.4979   58.5276 N.am    1  ZINC000811540126   -0.7200
      5 C5        -11.2778   -3.6532   57.8707 C.2     1  ZINC000811540126    0.5700
      6 O6        -10.6363   -4.5393   58.4014 O.2     1  ZINC000811540126   -0.5100
      7 C7        -11.8102   -3.8425   56.5080 C.ar    1  ZINC000811540126   -0.1600
      8 C8        -11.2749   -3.1213   55.4383 C.ar    1  ZINC000811540126   -0.0400
      9 C9        -11.7771   -3.3029   54.1671 C.ar    1  ZINC000811540126   -0.1200
     10 I10       -10.9731   -2.2204   52.5637 I       1  ZINC000811540126   -0.0300
     11 C11       -12.8108   -4.1984   53.9454 C.ar    1  ZINC000811540126   -0.0400
     12 C12       -13.3492   -4.9173   54.9944 C.ar    1  ZINC000811540126   -0.1500
     13 C13       -12.8524   -4.7514   56.2783 C.ar    1  ZINC000811540126    0.1900
     14 O14       -13.3801   -5.4574   57.3095 O.3     1  ZINC000811540126   -0.4700
     15 C15        -9.6480   -1.5529   59.8116 C.3     1  ZINC000811540126    0.1400
     16 H16        -9.6711   -0.8559   58.9740 H       1  ZINC000811540126    0.1300
     17 O17        -8.5779   -2.4822   59.6287 O.3     1  ZINC000811540126   -0.5400
     18 C18        -9.4369   -0.7900   61.0941 C.ar    1  ZINC000811540126   -0.1200
     19 C19        -8.9188   -1.4323   62.2030 C.ar    1  ZINC000811540126   -0.1100
     20 C20        -8.7252   -0.7325   63.3794 C.ar    1  ZINC000811540126   -0.1100
     21 C21        -9.0495    0.6096   63.4466 C.ar    1  ZINC000811540126   -0.1200
     22 C22        -9.5669    1.2520   62.3373 C.ar    1  ZINC000811540126   -0.1100
     23 C23        -9.7564    0.5533   61.1597 C.ar    1  ZINC000811540126   -0.1100
     24 H24       -12.9236   -2.0471   60.7624 H       1  ZINC000811540126    0.0600
     25 H25       -11.5855   -1.3680   61.7199 H       1  ZINC000811540126    0.0700
     26 H26       -12.1386   -0.5348   60.2476 H       1  ZINC000811540126    0.0700
     27 H27       -12.0133   -1.7905   58.1038 H       1  ZINC000811540126    0.3900
     28 H28       -10.4691   -2.4223   55.6067 H       1  ZINC000811540126    0.1300
     29 H29       -13.1980   -4.3348   52.9465 H       1  ZINC000811540126    0.1400
     30 H30       -14.1551   -5.6132   54.8137 H       1  ZINC000811540126    0.1500
     31 H31       -14.0406   -6.1109   57.0416 H       1  ZINC000811540126    0.4000
     32 H32        -7.6984   -2.0960   59.7391 H       1  ZINC000811540126    0.3700
     33 H33        -8.6655   -2.4808   62.1506 H       1  ZINC000811540126    0.1100
     34 H34        -8.3210   -1.2345   64.2461 H       1  ZINC000811540126    0.1200
     35 H35        -8.8990    1.1561   64.3659 H       1  ZINC000811540126    0.1200
     36 H36        -9.8205    2.3006   62.3900 H       1  ZINC000811540126    0.1300
     37 H37       -10.1606    1.0552   60.2931 H       1  ZINC000811540126    0.1200
@<TRIPOS>BOND
     1     1     2    1
     2     1    24    1
     3     1    25    1
     4     1    26    1
     5     2     3    1
     6     2     4    1
     7     2    15    1
     8     4     5   am
     9     4    27    1
    10     5     6    2
    11     5     7    1
    12     7    13   ar
    13     7     8   ar
    14     8     9   ar
    15     8    28    1
    16     9    10    1
    17     9    11   ar
    18    11    12   ar
    19    11    29    1
    20    12    13   ar
    21    12    30    1
    22    13    14    1
    23    14    31    1
    24    15    16    1
    25    15    17    1
    26    15    18    1
    27    17    32    1
    28    18    23   ar
    29    18    19   ar
    30    19    20   ar
    31    19    33    1
    32    20    21   ar
    33    20    34    1
    34    21    22   ar
    35    21    35    1
    36    22    23   ar
    37    22    36    1
    38    23    37    1
@<TRIPOS>SUBSTRUCTURE
     1 ZINC000811540126        1 TEMP              0 ****  ****    0 ROOT


##########                                Name:    ZINC000006915700
##########                DOCK_Rotatable_Bonds:                   5
##########                         Heavy_Atoms:                  26
##########                    Molecular_Weight:             369.447
##########                DOCK_Rotatable_Bonds:                   5
##########                       Formal_Charge:        -1.04308e-07
##########                     HBond_Acceptors:                   8
##########                        HBond_Donors:                   1
##########                         Heavy_Atoms:                  26
##########                          Grid_Score:          -35.662308
##########                     Grid_vdw_energy:          -32.846333
##########                      Grid_es_energy:           -2.815975
##########           Internal_energy_repulsive:            6.054977

@<TRIPOS>MOLECULE
ZINC000006915700
 45 48 1 0 0
SMALL
USER_CHARGES


@<TRIPOS>ATOM
      1 C1         -7.3363    4.2839   55.6842 C.3     1  <0>        -0.1200
      2 C2         -7.9180    2.9548   56.0921 C.ar    1  <0>        -0.0500
      3 C3         -8.1613    2.6902   57.4281 C.ar    1  <0>        -0.1300
      4 C4         -8.6941    1.4754   57.8078 C.ar    1  <0>        -0.0600
      5 C5         -8.9873    0.5131   56.8414 C.ar    1  <0>        -0.0700
      6 C6         -9.5598   -0.7926   57.2422 C.2     1  <0>         0.4400
      7 N7        -10.3408   -1.4496   56.3946 N.2     1  <0>        -0.5200
      8 C8        -10.8642   -2.6292   56.7422 C.2     1  <0>         0.3600
      9 C9        -11.6951   -3.5294   56.0878 C.2     1  <0>        -0.3200
     10 C10       -11.9169   -4.6060   56.9481 C.2     1  <0>         0.5500
     11 O11       -12.6013   -5.5859   56.7026 O.2     1  <0>        -0.5200
     12 N12       -11.2469   -4.3804   58.0951 N.am    1  <0>        -0.5000
     13 N13       -10.5844   -3.1538   57.9872 N.pl3   1  <0>        -0.3300
     14 C14        -9.7771   -2.4533   58.8363 C.2     1  <0>         0.3900
     15 S15        -9.3992   -3.0942   60.4336 S.3     1  <0>         0.1200
     16 C16        -9.1913   -1.5480   61.3514 C.3     1  <0>        -0.1500
     17 C17       -10.5406   -1.0370   61.7868 C.2     1  <0>         0.5500
     18 O18       -11.5444   -1.4193   61.2236 O.2     1  <0>        -0.5200
     19 N19       -10.6317   -0.1552   62.8018 N.am    1  <0>        -0.6100
     20 C20       -11.8783    0.4186   63.3293 C.3     1  <0>         0.0900
     21 C21       -11.4913    1.3914   64.4631 C.3     1  <0>        -0.1300
     22 C22       -10.0155    1.7392   64.1339 C.3     1  <0>        -0.1400
     23 C23        -9.4981    0.3893   63.5713 C.3     1  <0>         0.1000
     24 N24        -9.2764   -1.2908   58.4481 N.2     1  <0>        -0.5600
     25 C25        -8.7398    0.7860   55.4960 C.ar    1  <0>        -0.0500
     26 C26        -8.2117    2.0065   55.1284 C.ar    1  <0>        -0.1300
     27 H27        -8.1439    4.9910   55.4942 H       1  <0>         0.0800
     28 H28        -6.7017    4.6639   56.4848 H       1  <0>         0.0700
     29 H29        -6.7429    4.1583   54.7786 H       1  <0>         0.0700
     30 H30        -7.9334    3.4359   58.1753 H       1  <0>         0.1300
     31 H31        -8.8832    1.2698   58.8510 H       1  <0>         0.1300
     32 H32       -12.0977   -3.4165   55.0920 H       1  <0>         0.1800
     33 H33       -11.2272   -4.9696   58.8654 H       1  <0>         0.4400
     34 H34        -8.5702   -1.7271   62.2289 H       1  <0>         0.1400
     35 H35        -8.7115   -0.8074   60.7116 H       1  <0>         0.1400
     36 H36       -12.4011    0.9585   62.5400 H       1  <0>         0.0800
     37 H37       -12.5142   -0.3748   63.7225 H       1  <0>         0.0800
     38 H38       -12.1141    2.2855   64.4334 H       1  <0>         0.0900
     39 H39       -11.5646    0.9010   65.4338 H       1  <0>         0.0800
     40 H40        -9.9580    2.5271   63.3828 H       1  <0>         0.0800
     41 H41        -9.4698    2.0199   65.0347 H       1  <0>         0.0900
     42 H42        -9.2282   -0.2827   64.3860 H       1  <0>         0.0800
     43 H43        -8.6432    0.5543   62.9155 H       1  <0>         0.0800
     44 H44        -8.9647    0.0449   54.7432 H       1  <0>         0.1400
     45 H45        -8.0198    2.2191   54.0871 H       1  <0>         0.1300
@<TRIPOS>BOND
     1     1     2    1
     2     1    27    1
     3     1    28    1
     4     1    29    1
     5     2    26   ar
     6     2     3   ar
     7     3     4   ar
     8     3    30    1
     9     4     5   ar
    10     4    31    1
    11     5     6    1
    12     5    25   ar
    13     6    24    1
    14     6     7    2
    15     7     8    1
    16     8    13    1
    17     8     9    2
    18     9    10    1
    19     9    32    1
    20    10    11    2
    21    10    12   am
    22    12    13    1
    23    12    33    1
    24    13    14    1
    25    14    15    1
    26    14    24    2
    27    15    16    1
    28    16    17    1
    29    16    34    1
    30    16    35    1
    31    17    18    2
    32    17    19   am
    33    19    23    1
    34    19    20    1
    35    20    21    1
    36    20    36    1
    37    20    37    1
    38    21    22    1
    39    21    38    1
    40    21    39    1
    41    22    23    1
    42    22    40    1
    43    22    41    1
    44    23    42    1
    45    23    43    1
    46    25    26   ar
    47    25    44    1
    48    26    45    1
@<TRIPOS>SUBSTRUCTURE
     1 <0>         1 TEMP              0 ****  ****    0 ROOT


##########                                Name:    ZINC001362587626
##########                DOCK_Rotatable_Bonds:                   9
##########                         Heavy_Atoms:                  25
##########                    Molecular_Weight:             346.346
##########                DOCK_Rotatable_Bonds:                   9
##########                       Formal_Charge:        -4.02331e-07
##########                     HBond_Acceptors:                  10
##########                        HBond_Donors:                   2
##########                         Heavy_Atoms:                  25
##########                          Grid_Score:          -35.647144
##########                     Grid_vdw_energy:          -35.030468
##########                      Grid_es_energy:           -0.616676
##########           Internal_energy_repulsive:            8.932956

@<TRIPOS>MOLECULE
ZINC001362587626
 43 45 1 0 0
SMALL
USER_CHARGES


@<TRIPOS>ATOM
      1 C1         -9.3256    3.3804   57.2676 C.3     1  ZINC001362587626   -0.1600
      2 C2         -8.2885    2.2779   57.4911 C.3     1  ZINC001362587626    0.1300
      3 H3         -7.9820    2.2742   58.5372 H       1  ZINC001362587626    0.1200
      4 N4         -7.1213    2.5258   56.6411 N.am    1  ZINC001362587626   -0.7100
      5 C5         -6.1796    3.4079   57.0302 C.2     1  ZINC001362587626    0.5100
      6 O6         -6.2975    3.9953   58.0847 O.2     1  ZINC001362587626   -0.5000
      7 C7         -4.9797    3.6642   56.1549 C.3     1  ZINC001362587626    0.1000
      8 N8         -3.8971    2.7517   56.5311 N.pl3   1  ZINC001362587626   -0.3100
      9 C9         -2.9749    2.2222   55.7059 C.2     1  ZINC001362587626    0.1600
     10 N10        -2.1989    1.4669   56.4442 N.2     1  ZINC001362587626   -0.3000
     11 N11        -2.6223    1.5292   57.6594 N.2     1  ZINC001362587626   -0.0700
     12 N12        -3.6450    2.3092   57.7164 N.2     1  ZINC001362587626   -0.0700
     13 C13        -8.8915    0.9424   57.1396 C.2     1  ZINC001362587626    0.5100
     14 O14        -8.7155    0.4690   56.0367 O.2     1  ZINC001362587626   -0.5200
     15 N15        -9.6261    0.2738   58.0506 N.am    1  ZINC001362587626   -0.6600
     16 C16       -10.1867   -0.9678   57.7237 C.ar    1  ZINC001362587626    0.1000
     17 C17       -11.0965   -1.0659   56.6794 C.ar    1  ZINC001362587626   -0.1000
     18 C18       -11.6482   -2.2900   56.3573 C.ar    1  ZINC001362587626   -0.1900
     19 C19       -11.2941   -3.4217   57.0772 C.ar    1  ZINC001362587626    0.1200
     20 O20       -11.8381   -4.6268   56.7599 O.3     1  ZINC001362587626   -0.2800
     21 C21       -13.2161   -4.6371   56.3817 C.3     1  ZINC001362587626    0.0100
     22 C22       -13.9145   -5.9904   56.6133 C.3     1  ZINC001362587626    0.0200
     23 O23       -14.2655   -5.4596   57.9070 O.3     1  ZINC001362587626   -0.3700
     24 C24       -14.1630   -4.0906   57.4667 C.3     1  ZINC001362587626    0.0400
     25 C25       -10.3849   -3.3247   58.1204 C.ar    1  ZINC001362587626   -0.1300
     26 C26        -9.8283   -2.1020   58.4400 C.ar    1  ZINC001362587626   -0.0800
     27 H27        -9.6321    3.3842   56.2216 H       1  ZINC001362587626    0.0700
     28 H28       -10.1940    3.1959   57.9000 H       1  ZINC001362587626    0.0800
     29 H29        -8.8895    4.3464   57.5219 H       1  ZINC001362587626    0.0800
     30 H30        -7.0264    2.0551   55.7984 H       1  ZINC001362587626    0.4100
     31 H31        -5.2489    3.4982   55.1118 H       1  ZINC001362587626    0.1500
     32 H32        -4.6484    4.6944   56.2852 H       1  ZINC001362587626    0.1400
     33 H33        -2.8911    2.3872   54.6418 H       1  ZINC001362587626    0.2400
     34 H34        -9.7668    0.6524   58.9324 H       1  ZINC001362587626    0.4100
     35 H35       -11.3728   -0.1847   56.1193 H       1  ZINC001362587626    0.1300
     36 H36       -12.3560   -2.3664   55.5451 H       1  ZINC001362587626    0.1400
     37 H37       -13.3894   -4.2139   55.3923 H       1  ZINC001362587626    0.0900
     38 H38       -14.7701   -6.1626   55.9603 H       1  ZINC001362587626    0.1000
     39 H39       -13.2306   -6.8381   56.6552 H       1  ZINC001362587626    0.1000
     40 H40       -13.6763   -3.4315   58.1855 H       1  ZINC001362587626    0.1000
     41 H41       -15.0945   -3.6826   57.0744 H       1  ZINC001362587626    0.1000
     42 H42       -10.1095   -4.2062   58.6804 H       1  ZINC001362587626    0.1400
     43 H43        -9.1200   -2.0266   59.2519 H       1  ZINC001362587626    0.1500
@<TRIPOS>BOND
     1     1     2    1
     2     1    27    1
     3     1    28    1
     4     1    29    1
     5     2     3    1
     6     2     4    1
     7     2    13    1
     8     4     5   am
     9     4    30    1
    10     5     6    2
    11     5     7    1
    12     7     8    1
    13     7    31    1
    14     7    32    1
    15     8    12    1
    16     8     9    1
    17     9    10    2
    18     9    33    1
    19    10    11    1
    20    11    12    2
    21    13    14    2
    22    13    15   am
    23    15    16    1
    24    15    34    1
    25    16    26   ar
    26    16    17   ar
    27    17    18   ar
    28    17    35    1
    29    18    19   ar
    30    18    36    1
    31    19    20    1
    32    19    25   ar
    33    20    21    1
    34    21    24    1
    35    21    22    1
    36    21    37    1
    37    22    23    1
    38    22    38    1
    39    22    39    1
    40    23    24    1
    41    24    40    1
    42    24    41    1
    43    25    26   ar
    44    25    42    1
    45    26    43    1
@<TRIPOS>SUBSTRUCTURE
     1 ZINC001362587626        1 TEMP              0 ****  ****    0 ROOT


##########                                Name:    ZINC001207290212
##########                DOCK_Rotatable_Bonds:                   8
##########                         Heavy_Atoms:                  23
##########                    Molecular_Weight:             344.435
##########                DOCK_Rotatable_Bonds:                   8
##########                       Formal_Charge:               -0.03
##########                     HBond_Acceptors:                   9
##########                        HBond_Donors:                   2
##########                         Heavy_Atoms:                  23
##########                          Grid_Score:          -35.646828
##########                     Grid_vdw_energy:          -36.108997
##########                      Grid_es_energy:            0.462169
##########           Internal_energy_repulsive:            6.409721

@<TRIPOS>MOLECULE
ZINC001207290212
 47 48 1 0 0
SMALL
USER_CHARGES


@<TRIPOS>ATOM
      1 C1        -10.7974   -0.0116   62.9263 C.3     1  ZINC001207290212   -0.1500
      2 C2         -9.9795    0.1250   61.6404 C.3     1  ZINC001207290212   -0.6300
      3 S3         -9.2872   -1.4898   61.1896 S.o2    1  ZINC001207290212    2.6100
      4 O4         -8.6865   -1.4333   59.9030 O.2     1  ZINC001207290212   -0.9500
      5 O5         -8.6013   -2.0642   62.2937 O.2     1  ZINC001207290212   -0.9500
      6 N6        -10.6106   -2.4629   60.9800 N.am    1  ZINC001207290212   -1.1100
      7 C7        -11.6145   -2.1260   59.9677 C.3     1  ZINC001207290212    0.0900
      8 C8        -11.4851   -3.0684   58.7988 C.2     1  ZINC001207290212    0.5100
      9 O9        -10.4264   -3.6168   58.5762 O.2     1  ZINC001207290212   -0.5300
     10 N10       -12.5457   -3.3018   58.0007 N.am    1  ZINC001207290212   -0.7200
     11 C11       -12.4204   -4.2192   56.8655 C.3     1  ZINC001207290212    0.1400
     12 H12       -11.8293   -5.0905   57.1474 H       1  ZINC001207290212    0.1000
     13 C13       -11.7746   -3.5007   55.6663 C.3     1  ZINC001207290212    0.0200
     14 N14       -12.7684   -3.5055   54.5709 N.3     1  ZINC001207290212   -0.5100
     15 C15       -12.1099   -3.6237   53.2631 C.3     1  ZINC001207290212    0.1300
     16 C16       -12.7691   -2.6884   52.2825 C.2     1  ZINC001207290212    0.0000
     17 C17       -12.1407   -1.8623   51.4298 C.2     1  ZINC001207290212   -0.0700
     18 O18       -13.0933   -1.2074   50.7375 O.3     1  ZINC001207290212   -0.2000
     19 C19       -14.2845   -1.6389   51.1732 C.2     1  ZINC001207290212    0.1900
     20 C20       -15.6254   -1.1703   50.6699 C.3     1  ZINC001207290212   -0.0600
     21 N21       -14.0924   -2.5347   52.0991 N.2     1  ZINC001207290212   -0.4700
     22 C22       -13.6509   -4.6719   54.8300 C.3     1  ZINC001207290212    0.0400
     23 C23       -13.8188   -4.6563   56.3718 C.3     1  ZINC001207290212   -0.1000
     24 H24       -14.5760   -3.9311   56.6700 H       1  ZINC001207290212    0.0900
     25 C25       -14.1728   -6.0509   56.8920 C.3     1  ZINC001207290212   -0.1400
     26 H26       -11.6079   -0.7229   62.7675 H       1  ZINC001207290212    0.0700
     27 H27       -10.1535   -0.3681   63.7302 H       1  ZINC001207290212    0.0700
     28 H28       -11.2134    0.9588   63.1972 H       1  ZINC001207290212    0.0800
     29 H29       -10.6235    0.4815   60.8365 H       1  ZINC001207290212    0.1300
     30 H30        -9.1690    0.8363   61.7992 H       1  ZINC001207290212    0.1300
     31 H31       -10.7211   -3.2560   61.5276 H       1  ZINC001207290212    0.4300
     32 H32       -12.6111   -2.2177   60.3997 H       1  ZINC001207290212    0.1000
     33 H33       -11.4585   -1.1021   59.6279 H       1  ZINC001207290212    0.1100
     34 H34       -13.3921   -2.8622   58.1780 H       1  ZINC001207290212    0.4100
     35 H35       -11.5264   -2.4746   55.9379 H       1  ZINC001207290212    0.0800
     36 H36       -10.8758   -4.0328   55.3545 H       1  ZINC001207290212    0.0500
     37 H37       -11.0563   -3.3628   53.3620 H       1  ZINC001207290212    0.0600
     38 H38       -12.1982   -4.6488   52.9032 H       1  ZINC001207290212    0.1000
     39 H39       -11.0727   -1.7448   51.3200 H       1  ZINC001207290212    0.2100
     40 H40       -15.4799   -0.4209   49.8918 H       1  ZINC001207290212    0.0900
     41 H41       -16.1759   -2.0172   50.2602 H       1  ZINC001207290212    0.1000
     42 H42       -16.1904   -0.7339   51.4936 H       1  ZINC001207290212    0.1000
     43 H43       -14.6141   -4.5427   54.3365 H       1  ZINC001207290212    0.0900
     44 H44       -13.1722   -5.5959   54.5057 H       1  ZINC001207290212    0.0500
     45 H45       -13.3893   -6.7539   56.6093 H       1  ZINC001207290212    0.0600
     46 H46       -14.2605   -6.0221   57.9781 H       1  ZINC001207290212    0.0600
     47 H47       -15.1209   -6.3701   56.4593 H       1  ZINC001207290212    0.0600
@<TRIPOS>BOND
     1     1     2    1
     2     1    26    1
     3     1    27    1
     4     1    28    1
     5     2     3    1
     6     2    29    1
     7     2    30    1
     8     3     4    2
     9     3     5    2
    10     3     6   am
    11     6     7    1
    12     6    31    1
    13     7     8    1
    14     7    32    1
    15     7    33    1
    16     8     9    2
    17     8    10   am
    18    10    11    1
    19    10    34    1
    20    11    12    1
    21    11    23    1
    22    11    13    1
    23    13    14    1
    24    13    35    1
    25    13    36    1
    26    14    15    1
    27    14    22    1
    28    15    16    1
    29    15    37    1
    30    15    38    1
    31    16    21    1
    32    16    17    2
    33    17    18    1
    34    17    39    1
    35    18    19    1
    36    19    20    1
    37    19    21    2
    38    20    40    1
    39    20    41    1
    40    20    42    1
    41    22    23    1
    42    22    43    1
    43    22    44    1
    44    23    24    1
    45    23    25    1
    46    25    45    1
    47    25    46    1
    48    25    47    1
@<TRIPOS>SUBSTRUCTURE
     1 ZINC001207290212        1 TEMP              0 ****  ****    0 ROOT


##########                                Name:    ZINC000766421809
##########                DOCK_Rotatable_Bonds:                   7
##########                         Heavy_Atoms:                  26
##########                    Molecular_Weight:             358.372
##########                DOCK_Rotatable_Bonds:                   7
##########                       Formal_Charge:         4.61936e-07
##########                     HBond_Acceptors:                   8
##########                        HBond_Donors:                   0
##########                         Heavy_Atoms:                  26
##########                          Grid_Score:          -35.646530
##########                     Grid_vdw_energy:          -33.708145
##########                      Grid_es_energy:           -1.938384
##########           Internal_energy_repulsive:            7.381150

@<TRIPOS>MOLECULE
ZINC000766421809
 45 47 1 0 0
SMALL
USER_CHARGES


@<TRIPOS>ATOM
      1 C1        -14.8659   -0.4984   64.4337 C.3     1  ZINC000766421809   -0.0700
      2 C2        -13.6950    0.0179   63.6376 C.2     1  ZINC000766421809    0.0700
      3 N3        -12.8091    0.8869   64.0520 N.2     1  ZINC000766421809   -0.2900
      4 N4        -11.8884    1.1002   63.0180 N.pl3   1  ZINC000766421809   -0.3700
      5 C5        -10.7336    2.0005   63.0644 C.3     1  ZINC000766421809    0.1000
      6 C6        -12.2531    0.3301   61.9716 C.2     1  ZINC000766421809    0.0700
      7 C7        -11.5461    0.2426   60.6437 C.3     1  ZINC000766421809    0.1400
      8 O8        -10.4029   -0.6447   60.7616 O.3     1  ZINC000766421809   -0.3400
      9 C9        -10.6560   -1.9623   60.8039 C.2     1  ZINC000766421809    0.4700
     10 O10       -11.7783   -2.3683   60.6153 O.2     1  ZINC000766421809   -0.5000
     11 C11        -9.5403   -2.9351   61.0867 C.3     1  ZINC000766421809   -0.1100
     12 C12        -8.7538   -3.1969   59.8007 C.3     1  ZINC000766421809   -0.0200
     13 C13        -9.6676   -3.8050   58.7680 C.2     1  ZINC000766421809    0.1900
     14 N14       -10.2808   -3.1691   57.8011 N.2     1  ZINC000766421809   -0.4700
     15 C15       -10.9824   -4.1129   57.1333 C.2     1  ZINC000766421809    0.2200
     16 C16       -11.8468   -3.8936   55.9474 C.ar    1  ZINC000766421809   -0.0300
     17 C17       -13.0564   -4.5750   55.8290 C.ar    1  ZINC000766421809   -0.0500
     18 C18       -13.8574   -4.3678   54.7248 C.ar    1  ZINC000766421809   -0.1500
     19 C19       -13.4602   -3.4841   53.7344 C.ar    1  ZINC000766421809    0.1200
     20 F20       -14.2473   -3.2845   52.6547 F       1  ZINC000766421809   -0.1300
     21 C21       -12.2581   -2.8040   53.8485 C.ar    1  ZINC000766421809   -0.1200
     22 C22       -11.8318   -1.8433   52.7685 C.3     1  ZINC000766421809   -0.1200
     23 C23       -11.4537   -3.0013   54.9516 C.ar    1  ZINC000766421809   -0.0600
     24 N24       -10.7558   -5.2553   57.7284 N.2     1  ZINC000766421809   -0.3700
     25 O25        -9.9997   -5.0955   58.6632 O.3     1  ZINC000766421809    0.0900
     26 C26       -13.3644   -0.3537   62.3304 C.2     1  ZINC000766421809   -0.2400
     27 H27       -14.5639   -1.3857   64.9902 H       1  ZINC000766421809    0.0800
     28 H28       -15.1995    0.2710   65.1299 H       1  ZINC000766421809    0.0700
     29 H29       -15.6810   -0.7541   63.7567 H       1  ZINC000766421809    0.0800
     30 H30        -9.8648    1.4580   63.4370 H       1  ZINC000766421809    0.0800
     31 H31       -10.5253    2.3761   62.0626 H       1  ZINC000766421809    0.0900
     32 H32       -10.9515    2.8372   63.7282 H       1  ZINC000766421809    0.0900
     33 H33       -12.2323   -0.1469   59.8917 H       1  ZINC000766421809    0.0900
     34 H34       -11.2068    1.2349   60.3467 H       1  ZINC000766421809    0.0900
     35 H35        -8.8744   -2.5153   61.8406 H       1  ZINC000766421809    0.1200
     36 H36        -9.9595   -3.8721   61.4533 H       1  ZINC000766421809    0.1200
     37 H37        -8.3527   -2.2568   59.4223 H       1  ZINC000766421809    0.1200
     38 H38        -7.9338   -3.8838   60.0098 H       1  ZINC000766421809    0.1200
     39 H39       -13.3665   -5.2645   56.6003 H       1  ZINC000766421809    0.1500
     40 H40       -14.7951   -4.8955   54.6322 H       1  ZINC000766421809    0.1500
     41 H41       -12.2082   -0.8468   52.9993 H       1  ZINC000766421809    0.0800
     42 H42       -10.7434   -1.8170   52.7145 H       1  ZINC000766421809    0.0800
     43 H43       -12.2352   -2.1713   51.8105 H       1  ZINC000766421809    0.0700
     44 H44       -10.5171   -2.4709   55.0396 H       1  ZINC000766421809    0.1400
     45 H45       -13.9042   -1.0573   61.7139 H       1  ZINC000766421809    0.1500
@<TRIPOS>BOND
     1     1     2    1
     2     1    27    1
     3     1    28    1
     4     1    29    1
     5     2    26    1
     6     2     3    2
     7     3     4    1
     8     4     5    1
     9     4     6    1
    10     5    30    1
    11     5    31    1
    12     5    32    1
    13     6     7    1
    14     6    26    2
    15     7     8    1
    16     7    33    1
    17     7    34    1
    18     8     9    1
    19     9    10    2
    20     9    11    1
    21    11    12    1
    22    11    35    1
    23    11    36    1
    24    12    13    1
    25    12    37    1
    26    12    38    1
    27    13    25    1
    28    13    14    2
    29    14    15    1
    30    15    16    1
    31    15    24    2
    32    16    23   ar
    33    16    17   ar
    34    17    18   ar
    35    17    39    1
    36    18    19   ar
    37    18    40    1
    38    19    20    1
    39    19    21   ar
    40    21    22    1
    41    21    23   ar
    42    22    41    1
    43    22    42    1
    44    22    43    1
    45    23    44    1
    46    24    25    1
    47    26    45    1
@<TRIPOS>SUBSTRUCTURE
     1 ZINC000766421809        1 TEMP              0 ****  ****    0 ROOT


##########                                Name:    ZINC001039825450
##########                DOCK_Rotatable_Bonds:                   8
##########                         Heavy_Atoms:                  24
##########                    Molecular_Weight:             337.339
##########                DOCK_Rotatable_Bonds:                   8
##########                       Formal_Charge:           0.0100001
##########                     HBond_Acceptors:                  11
##########                        HBond_Donors:                   4
##########                         Heavy_Atoms:                  24
##########                          Grid_Score:          -35.628033
##########                     Grid_vdw_energy:          -35.316952
##########                      Grid_es_energy:           -0.311080
##########           Internal_energy_repulsive:            6.949485

@<TRIPOS>MOLECULE
ZINC001039825450
 43 45 1 0 0
SMALL
USER_CHARGES


@<TRIPOS>ATOM
      1 O1        -11.4909   -0.1653   63.3532 O.2     1  ZINC001039825450   -0.5100
      2 C2        -10.3384   -0.0054   63.0108 C.2     1  ZINC001039825450    0.5000
      3 C3         -9.3486    0.6144   63.9633 C.3     1  ZINC001039825450    0.1300
      4 N4         -9.6112    2.0514   64.0738 N.pl3   1  ZINC001039825450   -0.1500
      5 N5        -10.0882    2.7817   63.1288 N.2     1  ZINC001039825450   -0.2800
      6 C6        -10.1971    4.0165   63.5644 C.2     1  ZINC001039825450   -0.0200
      7 C7         -9.7404    3.9984   64.8841 C.2     1  ZINC001039825450   -0.0200
      8 N8         -9.4013    2.7533   65.1307 N.2     1  ZINC001039825450   -0.2800
      9 N9         -9.9416   -0.3871   61.7807 N.am    1  ZINC001039825450   -0.7300
     10 C10       -10.9039   -0.9896   60.8548 C.3     1  ZINC001039825450    0.1000
     11 C11       -10.1619   -1.8803   59.8563 C.3     1  ZINC001039825450    0.1100
     12 O12        -9.0920   -1.1619   59.2387 O.3     1  ZINC001039825450   -0.5400
     13 C13        -9.6369   -3.1646   60.5508 C.3     1  ZINC001039825450   -0.1600
     14 C14        -9.5719   -4.1563   59.3624 C.3     1  ZINC001039825450    0.1000
     15 N15       -10.7463   -3.8294   58.5334 N.am    1  ZINC001039825450   -0.6100
     16 C16       -11.3637   -4.6698   57.6797 C.2     1  ZINC001039825450    0.5200
     17 O17       -10.9576   -5.8048   57.5461 O.2     1  ZINC001039825450   -0.5100
     18 C18       -12.5585   -4.1994   56.8910 C.3     1  ZINC001039825450    0.1100
     19 H19       -13.0940   -3.4224   57.4366 H       1  ZINC001039825450    0.1200
     20 C20       -13.4957   -5.3806   56.5726 C.3     1  ZINC001039825450    0.1100
     21 N21       -13.5094   -5.4333   55.1031 N.am    1  ZINC001039825450   -0.7400
     22 C22       -12.7240   -4.4615   54.6205 C.2     1  ZINC001039825450    0.7100
     23 O23       -12.5533   -4.2763   53.4311 O.2     1  ZINC001039825450   -0.5800
     24 N24       -12.1433   -3.7086   55.5685 N.am    1  ZINC001039825450   -0.7200
     25 C25       -11.1328   -2.4347   58.7926 C.3     1  ZINC001039825450    0.1200
     26 H26        -9.4488    0.1502   64.9445 H       1  ZINC001039825450    0.1400
     27 H27        -8.3370    0.4577   63.5889 H       1  ZINC001039825450    0.1400
     28 H28       -10.5641    4.8704   63.0144 H       1  ZINC001039825450    0.2000
     29 H29        -9.6821    4.8355   65.5641 H       1  ZINC001039825450    0.2000
     30 H30        -9.0190   -0.2628   61.5083 H       1  ZINC001039825450    0.4000
     31 H31       -11.6200   -1.5905   61.4153 H       1  ZINC001039825450    0.0900
     32 H32       -11.4323   -0.2026   60.3168 H       1  ZINC001039825450    0.0900
     33 H33        -8.6327   -0.5527   59.8329 H       1  ZINC001039825450    0.3800
     34 H34        -8.6475   -3.0012   60.9779 H       1  ZINC001039825450    0.0900
     35 H35       -10.3367   -3.5113   61.3112 H       1  ZINC001039825450    0.0900
     36 H36        -8.6535   -4.0082   58.7945 H       1  ZINC001039825450    0.0800
     37 H37        -9.6354   -5.1835   59.7217 H       1  ZINC001039825450    0.0800
     38 H38       -13.0968   -6.3074   56.9850 H       1  ZINC001039825450    0.0900
     39 H39       -14.4972   -5.1890   56.9580 H       1  ZINC001039825450    0.1000
     40 H40       -14.0080   -6.0705   54.5682 H       1  ZINC001039825450    0.4400
     41 H41       -11.5450   -2.9627   55.4055 H       1  ZINC001039825450    0.4400
     42 H42       -12.1552   -2.3972   59.1686 H       1  ZINC001039825450    0.0900
     43 H43       -11.0511   -1.8509   57.8758 H       1  ZINC001039825450    0.0900
@<TRIPOS>BOND
     1     1     2    2
     2     2     3    1
     3     2     9   am
     4     3     4    1
     5     3    26    1
     6     3    27    1
     7     4     8    1
     8     4     5    1
     9     5     6    2
    10     6     7    1
    11     6    28    1
    12     7     8    2
    13     7    29    1
    14     9    10    1
    15     9    30    1
    16    10    11    1
    17    10    31    1
    18    10    32    1
    19    11    25    1
    20    11    12    1
    21    11    13    1
    22    12    33    1
    23    13    14    1
    24    13    34    1
    25    13    35    1
    26    14    15    1
    27    14    36    1
    28    14    37    1
    29    15    16   am
    30    15    25    1
    31    16    17    2
    32    16    18    1
    33    18    19    1
    34    18    24    1
    35    18    20    1
    36    20    21    1
    37    20    38    1
    38    20    39    1
    39    21    22   am
    40    21    40    1
    41    22    23    2
    42    22    24   am
    43    24    41    1
    44    25    42    1
    45    25    43    1
@<TRIPOS>SUBSTRUCTURE
     1 ZINC001039825450        1 TEMP              0 ****  ****    0 ROOT


##########                                Name:    ZINC000050607728
##########                DOCK_Rotatable_Bonds:                  10
##########                         Heavy_Atoms:                  31
##########                    Molecular_Weight:             416.476
##########                DOCK_Rotatable_Bonds:                  10
##########                       Formal_Charge:          -0.0199995
##########                     HBond_Acceptors:                   6
##########                        HBond_Donors:                   1
##########                         Heavy_Atoms:                  31
##########                          Grid_Score:          -35.618641
##########                     Grid_vdw_energy:          -34.200230
##########                      Grid_es_energy:           -1.418410
##########           Internal_energy_repulsive:           14.918308

@<TRIPOS>MOLECULE
ZINC000050607728
 55 57 1 0 0
SMALL
USER_CHARGES


@<TRIPOS>ATOM
      1 C1        -12.6711   -1.2248   53.8594 C.3     1  ZINC000050607728    0.0800
      2 N2        -11.9847   -2.1218   52.9264 N.am    1  ZINC000050607728   -0.6200
      3 C3        -11.5640   -1.6294   51.6124 C.3     1  ZINC000050607728    0.0700
      4 C4        -11.7405   -3.4001   53.2769 C.2     1  ZINC000050607728    0.5600
      5 O5        -11.1711   -4.1443   52.5028 O.2     1  ZINC000050607728   -0.5300
      6 C6        -12.1651   -3.8970   54.6030 C.ar    1  ZINC000050607728   -0.1400
      7 C7        -13.4023   -4.5253   54.7528 C.ar    1  ZINC000050607728   -0.0800
      8 C8        -13.7924   -4.9872   55.9930 C.ar    1  ZINC000050607728   -0.1300
      9 C9        -12.9604   -4.8283   57.0867 C.ar    1  ZINC000050607728   -0.0700
     10 C10       -11.7327   -4.2057   56.9452 C.ar    1  ZINC000050607728   -0.1100
     11 C11       -10.8330   -4.0364   58.1424 C.3     1  ZINC000050607728    0.1100
     12 O12       -10.9329   -2.6739   58.6341 O.3     1  ZINC000050607728   -0.3400
     13 C13       -10.1762   -2.3518   59.6949 C.2     1  ZINC000050607728    0.4700
     14 O14        -9.5025   -3.1968   60.2352 O.2     1  ZINC000050607728   -0.5000
     15 C15       -10.1670   -0.9364   60.2119 C.3     1  ZINC000050607728    0.2000
     16 H16        -9.1993   -0.7214   60.6653 H       1  ZINC000050607728    0.1400
     17 N17       -10.4029   -0.0095   59.1021 N.am    1  ZINC000050607728   -0.7100
     18 C18        -9.5312    0.0488   58.0759 C.2     1  ZINC000050607728    0.5700
     19 O19        -8.5501   -0.6686   58.0703 O.2     1  ZINC000050607728   -0.5200
     20 C20        -9.7685    0.9854   56.9568 C.ar    1  ZINC000050607728   -0.1400
     21 C21       -10.8918    1.8140   56.9624 C.ar    1  ZINC000050607728   -0.0800
     22 C22       -11.1070    2.6860   55.9153 C.ar    1  ZINC000050607728   -0.1300
     23 C23       -10.2126    2.7402   54.8611 C.ar    1  ZINC000050607728   -0.0900
     24 C24        -9.0974    1.9213   54.8492 C.ar    1  ZINC000050607728   -0.1300
     25 C25        -8.8672    1.0492   55.8931 C.ar    1  ZINC000050607728   -0.0600
     26 C26       -11.2529   -0.7714   61.2437 C.ar    1  ZINC000050607728   -0.1000
     27 C27       -12.4538   -1.4397   61.0962 C.ar    1  ZINC000050607728   -0.1000
     28 C28       -13.4499   -1.2884   62.0427 C.ar    1  ZINC000050607728   -0.1200
     29 C29       -13.2448   -0.4689   63.1369 C.ar    1  ZINC000050607728   -0.1100
     30 C30       -12.0435    0.1989   63.2849 C.ar    1  ZINC000050607728   -0.1200
     31 C31       -11.0458    0.0441   62.3406 C.ar    1  ZINC000050607728   -0.0800
     32 C32       -11.3280   -3.7449   55.7097 C.ar    1  ZINC000050607728   -0.0400
     33 H33       -13.7471   -1.2839   53.6953 H       1  ZINC000050607728    0.0600
     34 H34       -12.4429   -1.5216   54.8832 H       1  ZINC000050607728    0.0800
     35 H35       -12.3341   -0.2015   53.6941 H       1  ZINC000050607728    0.0700
     36 H36       -10.5893   -1.1494   51.6993 H       1  ZINC000050607728    0.0600
     37 H37       -11.4967   -2.4650   50.9157 H       1  ZINC000050607728    0.0800
     38 H38       -12.2930   -0.9074   51.2444 H       1  ZINC000050607728    0.0700
     39 H39       -14.0530   -4.6494   53.8997 H       1  ZINC000050607728    0.1400
     40 H40       -14.7495   -5.4736   56.1103 H       1  ZINC000050607728    0.1400
     41 H41       -13.2707   -5.1912   58.0554 H       1  ZINC000050607728    0.1300
     42 H42       -11.1378   -4.7291   58.9268 H       1  ZINC000050607728    0.0900
     43 H43        -9.8024   -4.2442   57.8545 H       1  ZINC000050607728    0.0900
     44 H44       -11.1865    0.5622   59.1060 H       1  ZINC000050607728    0.4100
     45 H45       -11.5911    1.7721   57.7844 H       1  ZINC000050607728    0.1300
     46 H46       -11.9757    3.3276   55.9183 H       1  ZINC000050607728    0.1300
     47 H47       -10.3859    3.4244   54.0437 H       1  ZINC000050607728    0.1300
     48 H48        -8.4033    1.9682   54.0232 H       1  ZINC000050607728    0.1300
     49 H49        -7.9961    0.4107   55.8828 H       1  ZINC000050607728    0.1400
     50 H50       -12.6140   -2.0800   60.2414 H       1  ZINC000050607728    0.1200
     51 H51       -14.3884   -1.8101   61.9271 H       1  ZINC000050607728    0.1200
     52 H52       -14.0233   -0.3501   63.8760 H       1  ZINC000050607728    0.1200
     53 H53       -11.8835    0.8394   64.1396 H       1  ZINC000050607728    0.1300
     54 H54       -10.1074    0.5658   62.4562 H       1  ZINC000050607728    0.1300
     55 H55       -10.3694   -3.2596   55.6005 H       1  ZINC000050607728    0.1300
@<TRIPOS>BOND
     1     1     2    1
     2     1    33    1
     3     1    34    1
     4     1    35    1
     5     2     3    1
     6     2     4   am
     7     3    36    1
     8     3    37    1
     9     3    38    1
    10     4     5    2
    11     4     6    1
    12     6    32   ar
    13     6     7   ar
    14     7     8   ar
    15     7    39    1
    16     8     9   ar
    17     8    40    1
    18     9    10   ar
    19     9    41    1
    20    10    11    1
    21    10    32   ar
    22    11    12    1
    23    11    42    1
    24    11    43    1
    25    12    13    1
    26    13    14    2
    27    13    15    1
    28    15    16    1
    29    15    17    1
    30    15    26    1
    31    17    18   am
    32    17    44    1
    33    18    19    2
    34    18    20    1
    35    20    25   ar
    36    20    21   ar
    37    21    22   ar
    38    21    45    1
    39    22    23   ar
    40    22    46    1
    41    23    24   ar
    42    23    47    1
    43    24    25   ar
    44    24    48    1
    45    25    49    1
    46    26    31   ar
    47    26    27   ar
    48    27    28   ar
    49    27    50    1
    50    28    29   ar
    51    28    51    1
    52    29    30   ar
    53    29    52    1
    54    30    31   ar
    55    30    53    1
    56    31    54    1
    57    32    55    1
@<TRIPOS>SUBSTRUCTURE
     1 ZINC000050607728        1 TEMP              0 ****  ****    0 ROOT


##########                                Name:    ZINC000821442454
##########                DOCK_Rotatable_Bonds:                   6
##########                         Heavy_Atoms:                  26
##########                    Molecular_Weight:             398.873
##########                DOCK_Rotatable_Bonds:                   6
##########                       Formal_Charge:          -0.0399996
##########                     HBond_Acceptors:                  11
##########                        HBond_Donors:                   2
##########                         Heavy_Atoms:                  26
##########                          Grid_Score:          -35.615265
##########                     Grid_vdw_energy:          -34.917747
##########                      Grid_es_energy:           -0.697516
##########           Internal_energy_repulsive:            9.043173

@<TRIPOS>MOLECULE
ZINC000821442454
 45 47 1 0 0
SMALL
USER_CHARGES


@<TRIPOS>ATOM
      1 C1        -13.7413   -0.9675   50.7683 C.3     1  ZINC000821442454   -0.1500
      2 C2        -13.5166   -1.7950   52.0355 C.3     1  ZINC000821442454   -0.6300
      3 S3        -11.8329   -1.5151   52.6498 S.o2    1  ZINC000821442454    2.6000
      4 O4        -10.8753   -2.0007   51.7191 O.2     1  ZINC000821442454   -0.9500
      5 O5        -11.7163   -0.2142   53.2097 O.2     1  ZINC000821442454   -0.9500
      6 N6        -11.6925   -2.5327   53.9487 N.am    1  ZINC000821442454   -1.0000
      7 C7        -11.8489   -3.9842   53.7828 C.3     1  ZINC000821442454    0.1100
      8 C8        -12.9074   -4.4822   54.7720 C.3     1  ZINC000821442454   -0.1300
      9 C9        -12.5204   -4.0495   56.1879 C.3     1  ZINC000821442454   -0.1100
     10 C10       -12.4720   -2.5216   56.2610 C.3     1  ZINC000821442454   -0.1200
     11 H11       -13.4452   -2.1133   55.9881 H       1  ZINC000821442454    0.1100
     12 C12       -12.1233   -2.0958   57.6639 C.2     1  ZINC000821442454    0.5300
     13 O13       -12.9582   -2.1571   58.5415 O.2     1  ZINC000821442454   -0.5100
     14 N14       -10.8836   -1.6470   57.9433 N.am    1  ZINC000821442454   -0.6700
     15 C15       -10.5598   -1.2518   59.2454 C.ar    1  ZINC000821442454    0.1800
     16 C16       -11.0297   -0.0419   59.7402 C.ar    1  ZINC000821442454   -0.1200
     17 C17       -10.7123    0.3497   61.0240 C.ar    1  ZINC000821442454   -0.0500
     18 C18        -9.9194   -0.4690   61.8254 C.ar    1  ZINC000821442454   -0.0300
     19 C19        -9.5771   -0.0493   63.2073 C.2     1  ZINC000821442454    0.2200
     20 N20        -8.6668   -0.5910   63.9921 N.2     1  ZINC000821442454   -0.2900
     21 N21        -8.6725    0.0552   65.1070 N.pl3   1  ZINC000821442454   -0.2200
     22 N22        -9.5571    0.9889   65.0536 N.2     1  ZINC000821442454   -0.0400
     23 N23       -10.1295    0.9580   63.8983 N.2     1  ZINC000821442454   -0.2700
     24 C24        -9.4484   -1.6829   61.3280 C.ar    1  ZINC000821442454   -0.0500
     25 C25        -9.7725   -2.0735   60.0452 C.ar    1  ZINC000821442454   -0.0800
     26 Cl26       -9.1865   -3.5851   59.4244 Cl      1  ZINC000821442454   -0.0500
     27 C27       -11.4030   -2.0018   55.2878 C.3     1  ZINC000821442454    0.1400
     28 H28       -13.6090    0.0900   50.9968 H       1  ZINC000821442454    0.0700
     29 H29       -13.0218   -1.2673   50.0063 H       1  ZINC000821442454    0.0700
     30 H30       -14.7530   -1.1358   50.3992 H       1  ZINC000821442454    0.0800
     31 H31       -14.2360   -1.4952   52.7975 H       1  ZINC000821442454    0.1300
     32 H32       -13.6488   -2.8526   51.8069 H       1  ZINC000821442454    0.1300
     33 H33       -12.1689   -4.2032   52.7641 H       1  ZINC000821442454    0.1000
     34 H34       -10.8990   -4.4795   53.9841 H       1  ZINC000821442454    0.0700
     35 H35       -13.8765   -4.0555   54.5132 H       1  ZINC000821442454    0.0700
     36 H36       -12.9645   -5.5698   54.7267 H       1  ZINC000821442454    0.0800
     37 H37       -13.2591   -4.4237   56.8968 H       1  ZINC000821442454    0.0700
     38 H38       -11.5402   -4.4561   56.4368 H       1  ZINC000821442454    0.0800
     39 H39       -10.2158   -1.5980   57.2414 H       1  ZINC000821442454    0.4200
     40 H40       -11.6441    0.5930   59.1188 H       1  ZINC000821442454    0.1600
     41 H41       -11.0778    1.2907   61.4077 H       1  ZINC000821442454    0.1500
     42 H42        -8.1001   -0.1326   65.8673 H       1  ZINC000821442454    0.4800
     43 H43        -8.8336   -2.3189   61.9475 H       1  ZINC000821442454    0.1500
     44 H44       -10.4182   -2.3360   55.6142 H       1  ZINC000821442454    0.0800
     45 H45       -11.4314   -0.9125   55.2616 H       1  ZINC000821442454    0.1000
@<TRIPOS>BOND
     1     1     2    1
     2     1    28    1
     3     1    29    1
     4     1    30    1
     5     2     3    1
     6     2    31    1
     7     2    32    1
     8     3     4    2
     9     3     5    2
    10     3     6   am
    11     6    27    1
    12     6     7    1
    13     7     8    1
    14     7    33    1
    15     7    34    1
    16     8     9    1
    17     8    35    1
    18     8    36    1
    19     9    10    1
    20     9    37    1
    21     9    38    1
    22    10    11    1
    23    10    12    1
    24    10    27    1
    25    12    13    2
    26    12    14   am
    27    14    15    1
    28    14    39    1
    29    15    25   ar
    30    15    16   ar
    31    16    17   ar
    32    16    40    1
    33    17    18   ar
    34    17    41    1
    35    18    19    1
    36    18    24   ar
    37    19    23    1
    38    19    20    2
    39    20    21    1
    40    21    22    1
    41    21    42    1
    42    22    23    2
    43    24    25   ar
    44    24    43    1
    45    25    26    1
    46    27    44    1
    47    27    45    1
@<TRIPOS>SUBSTRUCTURE
     1 ZINC000821442454        1 TEMP              0 ****  ****    0 ROOT


##########                                Name:    ZINC000279331220
##########                DOCK_Rotatable_Bonds:                   9
##########                         Heavy_Atoms:                  24
##########                    Molecular_Weight:             328.411
##########                DOCK_Rotatable_Bonds:                   9
##########                       Formal_Charge:          -0.0100001
##########                     HBond_Acceptors:                   5
##########                        HBond_Donors:                   0
##########                         Heavy_Atoms:                  24
##########                          Grid_Score:          -35.611263
##########                     Grid_vdw_energy:          -35.903210
##########                      Grid_es_energy:            0.291948
##########           Internal_energy_repulsive:           20.114977

@<TRIPOS>MOLECULE
ZINC000279331220
 48 49 1 0 0
SMALL
USER_CHARGES


@<TRIPOS>ATOM
      1 C1         -8.9502    0.7860   56.1419 C.3     1  ZINC000279331220   -0.1500
      2 C2         -9.9872    1.6536   55.4258 C.3     1  ZINC000279331220    0.0500
      3 O3        -10.4550    0.9721   54.2601 O.3     1  ZINC000279331220   -0.3000
      4 C4         -9.5133    0.5227   53.3879 C.ar    1  ZINC000279331220    0.1000
      5 C5         -8.4402    1.3302   53.0483 C.ar    1  ZINC000279331220   -0.1700
      6 C6         -7.4832    0.8716   52.1616 C.ar    1  ZINC000279331220   -0.1200
      7 C7         -7.5947   -0.3917   51.6123 C.ar    1  ZINC000279331220   -0.1200
      8 C8         -8.6636   -1.2027   51.9468 C.ar    1  ZINC000279331220   -0.1700
      9 C9         -9.6224   -0.7518   52.8392 C.ar    1  ZINC000279331220    0.1000
     10 O10       -10.6743   -1.5481   53.1691 O.3     1  ZINC000279331220   -0.3000
     11 C11       -10.6624   -2.8830   52.6595 C.3     1  ZINC000279331220    0.0600
     12 C12       -11.8626   -3.6520   53.2154 C.3     1  ZINC000279331220   -0.1100
     13 C13       -11.8599   -3.5666   54.7430 C.3     1  ZINC000279331220   -0.1300
     14 C14       -12.9304   -4.4702   55.2985 C.2     1  ZINC000279331220    0.5200
     15 O15       -13.7484   -4.9694   54.5552 O.2     1  ZINC000279331220   -0.5200
     16 N16       -12.9789   -4.7235   56.6213 N.am    1  ZINC000279331220   -0.5700
     17 C17       -14.0186   -5.6033   57.1610 C.3     1  ZINC000279331220    0.0800
     18 C18       -12.0398   -4.1483   57.4761 C.ar    1  ZINC000279331220    0.3400
     19 N19       -10.9193   -4.7969   57.7508 N.ar    1  ZINC000279331220   -0.4800
     20 C20       -10.0046   -4.2886   58.5543 C.ar    1  ZINC000279331220    0.1100
     21 C21       -10.1862   -3.0521   59.1413 C.ar    1  ZINC000279331220   -0.1600
     22 C22       -11.3484   -2.3392   58.8788 C.ar    1  ZINC000279331220   -0.0700
     23 C23       -12.2864   -2.8960   58.0277 C.ar    1  ZINC000279331220   -0.1200
     24 C24       -13.5631   -2.1604   57.7119 C.3     1  ZINC000279331220   -0.1100
     25 H25        -8.5933    1.3058   57.0310 H       1  ZINC000279331220    0.0800
     26 H26        -9.4066   -0.1601   56.4328 H       1  ZINC000279331220    0.0700
     27 H27        -8.1119    0.5943   55.4722 H       1  ZINC000279331220    0.0700
     28 H28       -10.8255    1.8453   56.0956 H       1  ZINC000279331220    0.0600
     29 H29        -9.5308    2.5998   55.1348 H       1  ZINC000279331220    0.0600
     30 H30        -8.3512    2.3180   53.4757 H       1  ZINC000279331220    0.1300
     31 H31        -6.6471    1.5021   51.8976 H       1  ZINC000279331220    0.1300
     32 H32        -6.8453   -0.7462   50.9199 H       1  ZINC000279331220    0.1300
     33 H33        -8.7486   -2.1892   51.5156 H       1  ZINC000279331220    0.1300
     34 H34       -10.7199   -2.8570   51.5713 H       1  ZINC000279331220    0.0600
     35 H35        -9.7406   -3.3795   52.9628 H       1  ZINC000279331220    0.0600
     36 H36       -12.7840   -3.2165   52.8288 H       1  ZINC000279331220    0.0800
     37 H37       -11.7982   -4.6963   52.9098 H       1  ZINC000279331220    0.0800
     38 H38       -10.8873   -3.8795   55.1227 H       1  ZINC000279331220    0.1000
     39 H39       -12.0564   -2.5393   55.0498 H       1  ZINC000279331220    0.1000
     40 H40       -13.6963   -6.6411   57.0762 H       1  ZINC000279331220    0.0700
     41 H41       -14.1913   -5.3611   58.2096 H       1  ZINC000279331220    0.0800
     42 H42       -14.9416   -5.4624   56.5987 H       1  ZINC000279331220    0.0800
     43 H43        -9.1025   -4.8470   58.7559 H       1  ZINC000279331220    0.1600
     44 H44        -9.4323   -2.6439   59.7981 H       1  ZINC000279331220    0.1400
     45 H45       -11.5144   -1.3700   59.3255 H       1  ZINC000279331220    0.1400
     46 H46       -13.4404   -1.6014   56.7841 H       1  ZINC000279331220    0.0800
     47 H47       -14.3769   -2.8767   57.5995 H       1  ZINC000279331220    0.0700
     48 H48       -13.7953   -1.4708   58.5235 H       1  ZINC000279331220    0.0700
@<TRIPOS>BOND
     1     1     2    1
     2     1    25    1
     3     1    26    1
     4     1    27    1
     5     2     3    1
     6     2    28    1
     7     2    29    1
     8     3     4    1
     9     4     9   ar
    10     4     5   ar
    11     5     6   ar
    12     5    30    1
    13     6     7   ar
    14     6    31    1
    15     7     8   ar
    16     7    32    1
    17     8     9   ar
    18     8    33    1
    19     9    10    1
    20    10    11    1
    21    11    12    1
    22    11    34    1
    23    11    35    1
    24    12    13    1
    25    12    36    1
    26    12    37    1
    27    13    14    1
    28    13    38    1
    29    13    39    1
    30    14    15    2
    31    14    16   am
    32    16    17    1
    33    16    18    1
    34    17    40    1
    35    17    41    1
    36    17    42    1
    37    18    23   ar
    38    18    19   ar
    39    19    20   ar
    40    20    21   ar
    41    20    43    1
    42    21    22   ar
    43    21    44    1
    44    22    23   ar
    45    22    45    1
    46    23    24    1
    47    24    46    1
    48    24    47    1
    49    24    48    1
@<TRIPOS>SUBSTRUCTURE
     1 ZINC000279331220        1 TEMP              0 ****  ****    0 ROOT


##########                                Name:    ZINC000668548901
##########                DOCK_Rotatable_Bonds:                   9
##########                         Heavy_Atoms:                  26
##########                    Molecular_Weight:             374.464
##########                DOCK_Rotatable_Bonds:                   9
##########                       Formal_Charge:         3.53903e-07
##########                     HBond_Acceptors:                   8
##########                        HBond_Donors:                   3
##########                         Heavy_Atoms:                  26
##########                          Grid_Score:          -35.602589
##########                     Grid_vdw_energy:          -33.623051
##########                      Grid_es_energy:           -1.979539
##########           Internal_energy_repulsive:           15.534258

@<TRIPOS>MOLECULE
ZINC000668548901
 48 50 1 0 0
SMALL
USER_CHARGES


@<TRIPOS>ATOM
      1 O1         -8.3660    1.0142   56.4766 O.2     1  ZINC000668548901   -0.5700
      2 C2         -8.4196    1.6557   57.5080 C.2     1  ZINC000668548901    0.7100
      3 N3         -7.5538    2.6670   57.7183 N.am    1  ZINC000668548901   -0.6800
      4 C4         -6.5923    2.9742   56.7545 C.ar    1  ZINC000668548901    0.2200
      5 C5         -5.2319    2.9399   57.0652 C.ar    1  ZINC000668548901   -0.1700
      6 C6         -4.3100    3.2495   56.0882 C.ar    1  ZINC000668548901    0.1200
      7 N7         -4.6970    3.5765   54.8693 N.ar    1  ZINC000668548901   -0.4300
      8 C8         -5.9783    3.6215   54.5319 C.ar    1  ZINC000668548901    0.1100
      9 S9         -6.4322    4.0645   52.8880 S.3     1  ZINC000668548901    0.0900
     10 C10        -5.6013    2.8582   51.9085 C.ar    1  ZINC000668548901    0.0900
     11 C11        -6.3399    1.8992   51.2229 C.ar    1  ZINC000668548901   -0.1500
     12 C12        -5.6746    0.9585   50.4573 C.ar    1  ZINC000668548901   -0.0700
     13 C13        -4.2880    1.0086   50.4030 C.ar    1  ZINC000668548901   -0.1700
     14 C14        -3.6184    1.9884   51.1092 C.ar    1  ZINC000668548901    0.1000
     15 N15        -4.2793    2.8760   51.8273 N.ar    1  ZINC000668548901   -0.4200
     16 C16        -6.9658    3.3168   55.4591 C.ar    1  ZINC000668548901   -0.1800
     17 N17        -9.3481    1.3590   58.4387 N.am    1  ZINC000668548901   -0.7200
     18 C18       -10.2891    0.2598   58.2102 C.3     1  ZINC000668548901    0.1700
     19 H19       -10.4823    0.1631   57.1417 H       1  ZINC000668548901    0.1000
     20 C20       -11.6011    0.5512   58.9414 C.3     1  ZINC000668548901    0.0600
     21 O21       -12.1911    1.7378   58.4068 O.3     1  ZINC000668548901   -0.5700
     22 C22        -9.6887   -1.0440   58.7399 C.3     1  ZINC000668548901   -0.1300
     23 H23        -8.7084   -1.2026   58.2903 H       1  ZINC000668548901    0.1000
     24 C24       -10.6106   -2.2141   58.3835 C.3     1  ZINC000668548901   -0.1200
     25 C25       -10.0393   -3.5016   58.9853 C.3     1  ZINC000668548901   -0.1600
     26 C26        -9.8846   -3.3236   60.4981 C.3     1  ZINC000668548901    0.0600
     27 O27        -9.0407   -2.2007   60.7604 O.3     1  ZINC000668548901   -0.3800
     28 C28        -9.5460   -0.9603   60.2618 C.3     1  ZINC000668548901    0.0700
     29 H29        -7.5991    3.1814   58.5394 H       1  ZINC000668548901    0.4100
     30 H30        -4.9053    2.6742   58.0598 H       1  ZINC000668548901    0.1500
     31 H31        -3.2562    3.2243   56.3234 H       1  ZINC000668548901    0.1600
     32 H32        -7.4178    1.8890   51.2877 H       1  ZINC000668548901    0.1400
     33 H33        -6.2214    0.2017   49.9144 H       1  ZINC000668548901    0.1400
     34 H34        -3.7388    0.2885   49.8147 H       1  ZINC000668548901    0.1400
     35 H35        -2.5400    2.0308   51.0701 H       1  ZINC000668548901    0.1600
     36 H36        -8.0088    3.3542   55.1814 H       1  ZINC000668548901    0.1400
     37 H37        -9.3934    1.8734   59.2599 H       1  ZINC000668548901    0.4000
     38 H38       -12.2853   -0.2868   58.8079 H       1  ZINC000668548901    0.0500
     39 H39       -11.4015    0.6914   60.0038 H       1  ZINC000668548901    0.0600
     40 H40       -13.0493    1.9590   58.7937 H       1  ZINC000668548901    0.3800
     41 H41       -11.6054   -2.0316   58.7901 H       1  ZINC000668548901    0.0700
     42 H42       -10.6710   -2.3137   57.2997 H       1  ZINC000668548901    0.0700
     43 H43       -10.7179   -4.3304   58.7837 H       1  ZINC000668548901    0.0800
     44 H44        -9.0659   -3.7105   58.5417 H       1  ZINC000668548901    0.0700
     45 H45       -10.8638   -3.1551   60.9463 H       1  ZINC000668548901    0.0500
     46 H46        -9.4385   -4.2215   60.9259 H       1  ZINC000668548901    0.1000
     47 H47        -8.8564   -0.1568   60.5202 H       1  ZINC000668548901    0.1000
     48 H48       -10.5208   -0.7600   60.7064 H       1  ZINC000668548901    0.0500
@<TRIPOS>BOND
     1     1     2    2
     2     2     3   am
     3     2    17   am
     4     3     4    1
     5     3    29    1
     6     4    16   ar
     7     4     5   ar
     8     5     6   ar
     9     5    30    1
    10     6     7   ar
    11     6    31    1
    12     7     8   ar
    13     8     9    1
    14     8    16   ar
    15     9    10    1
    16    10    15   ar
    17    10    11   ar
    18    11    12   ar
    19    11    32    1
    20    12    13   ar
    21    12    33    1
    22    13    14   ar
    23    13    34    1
    24    14    15   ar
    25    14    35    1
    26    16    36    1
    27    17    18    1
    28    17    37    1
    29    18    19    1
    30    18    20    1
    31    18    22    1
    32    20    21    1
    33    20    38    1
    34    20    39    1
    35    21    40    1
    36    22    23    1
    37    22    28    1
    38    22    24    1
    39    24    25    1
    40    24    41    1
    41    24    42    1
    42    25    26    1
    43    25    43    1
    44    25    44    1
    45    26    27    1
    46    26    45    1
    47    26    46    1
    48    27    28    1
    49    28    47    1
    50    28    48    1
@<TRIPOS>SUBSTRUCTURE
     1 ZINC000668548901        1 TEMP              0 ****  ****    0 ROOT


##########                                Name:    ZINC000545381384
##########                DOCK_Rotatable_Bonds:                   6
##########                         Heavy_Atoms:                  30
##########                    Molecular_Weight:             405.543
##########                DOCK_Rotatable_Bonds:                   6
##########                       Formal_Charge:                0.05
##########                     HBond_Acceptors:                   6
##########                        HBond_Donors:                   1
##########                         Heavy_Atoms:                  30
##########                          Grid_Score:          -35.589844
##########                     Grid_vdw_energy:          -35.572216
##########                      Grid_es_energy:           -0.017628
##########           Internal_energy_repulsive:           15.095271

@<TRIPOS>MOLECULE
ZINC000545381384
 61 64 1 0 0
SMALL
USER_CHARGES


@<TRIPOS>ATOM
      1 C1        -14.6655   -4.2273   55.2042 C.3     1  ZINC000545381384   -0.2000
      2 C2        -13.1662   -4.5286   55.1549 C.3     1  ZINC000545381384    0.0500
      3 N3        -12.4705   -3.4390   54.4573 N.3     1  ZINC000545381384   -0.5300
      4 C4        -11.6848   -3.9546   53.3252 C.3     1  ZINC000545381384    0.0500
      5 C5        -11.2993   -2.7809   52.4253 C.3     1  ZINC000545381384   -0.0700
      6 C6        -10.6691   -1.6845   53.2504 C.ar    1  ZINC000545381384    0.1800
      7 C7        -10.8196   -1.6483   54.6316 C.ar    1  ZINC000545381384   -0.0800
      8 C8        -11.6051   -2.6940   55.3773 C.3     1  ZINC000545381384    0.0900
      9 C9        -10.2291   -0.6204   55.3625 C.ar    1  ZINC000545381384   -0.0700
     10 C10       -10.3740   -0.5526   56.8324 C.2     1  ZINC000545381384    0.5800
     11 O11       -11.3424   -0.0058   57.3230 O.2     1  ZINC000545381384   -0.4800
     12 N12        -9.4324   -1.0972   57.6281 N.am    1  ZINC000545381384   -0.6400
     13 C13        -9.5697   -1.0348   59.0133 C.2     1  ZINC000545381384    0.3000
     14 C14        -9.5829    0.0963   59.7712 C.2     1  ZINC000545381384   -0.2700
     15 C15        -9.7410   -0.2843   61.1063 C.2     1  ZINC000545381384    0.1000
     16 C16        -9.8090    0.6501   62.2866 C.3     1  ZINC000545381384   -0.0300
     17 C17       -11.2578    1.0909   62.5054 C.3     1  ZINC000545381384   -0.0600
     18 C18       -12.1406   -0.1419   62.7095 C.3     1  ZINC000545381384   -0.1500
     19 C19       -11.3372    1.9858   63.7438 C.3     1  ZINC000545381384   -0.1400
     20 C20       -11.7443    1.8696   61.2815 C.3     1  ZINC000545381384   -0.1400
     21 N21        -9.8205   -1.5892   61.1581 N.2     1  ZINC000545381384   -0.2700
     22 N22        -9.7209   -2.0907   59.8539 N.pl3   1  ZINC000545381384   -0.3900
     23 C23        -9.7633   -3.5030   59.4669 C.3     1  ZINC000545381384    0.1000
     24 C24        -9.4853    0.3580   54.6586 C.ar    1  ZINC000545381384   -0.0700
     25 C25        -8.8603    1.4219   55.3215 C.ar    1  ZINC000545381384   -0.1100
     26 C26        -8.1531    2.3400   54.6047 C.ar    1  ZINC000545381384   -0.1000
     27 C27        -8.0439    2.2343   53.2196 C.ar    1  ZINC000545381384   -0.1000
     28 C28        -8.6393    1.2143   52.5442 C.ar    1  ZINC000545381384   -0.0900
     29 C29        -9.3778    0.2465   53.2502 C.ar    1  ZINC000545381384    0.1400
     30 N30        -9.9726   -0.7636   52.6167 N.ar    1  ZINC000545381384   -0.4600
     31 H31       -14.8282   -3.2742   55.7074 H       1  ZINC000545381384    0.0600
     32 H32       -15.0589   -4.1741   54.1892 H       1  ZINC000545381384    0.0600
     33 H33       -15.1774   -5.0190   55.7514 H       1  ZINC000545381384    0.0700
     34 H34       -12.7795   -4.6151   56.1704 H       1  ZINC000545381384    0.0900
     35 H35       -13.0011   -5.4651   54.6222 H       1  ZINC000545381384    0.0800
     36 H36       -10.7835   -4.4421   53.6970 H       1  ZINC000545381384    0.0500
     37 H37       -12.2832   -4.6685   52.7593 H       1  ZINC000545381384    0.0900
     38 H38       -10.5888   -3.1207   51.6718 H       1  ZINC000545381384    0.1000
     39 H39       -12.1913   -2.3952   51.9317 H       1  ZINC000545381384    0.1000
     40 H40       -12.2190   -2.2099   56.1368 H       1  ZINC000545381384    0.0900
     41 H41       -10.9154   -3.3848   55.8624 H       1  ZINC000545381384    0.0700
     42 H42        -8.6590   -1.5325   57.2366 H       1  ZINC000545381384    0.4100
     43 H43        -9.4876    1.1080   59.4054 H       1  ZINC000545381384    0.1700
     44 H44        -9.4470    0.1370   63.1775 H       1  ZINC000545381384    0.0800
     45 H45        -9.1882    1.5250   62.0937 H       1  ZINC000545381384    0.0800
     46 H46       -11.7941   -0.6967   63.5814 H       1  ZINC000545381384    0.0500
     47 H47       -13.1727    0.1721   62.8654 H       1  ZINC000545381384    0.0500
     48 H48       -12.0841   -0.7795   61.8272 H       1  ZINC000545381384    0.0800
     49 H49       -10.7082    2.8640   63.5984 H       1  ZINC000545381384    0.0600
     50 H50       -12.3692    2.2998   63.8996 H       1  ZINC000545381384    0.0600
     51 H51       -10.9905    1.4310   64.6157 H       1  ZINC000545381384    0.0600
     52 H52       -11.6877    1.2319   60.3992 H       1  ZINC000545381384    0.0500
     53 H53       -12.7763    2.1836   61.4374 H       1  ZINC000545381384    0.0500
     54 H54       -11.1152    2.7478   61.1360 H       1  ZINC000545381384    0.0500
     55 H55       -10.7950   -3.7952   59.2708 H       1  ZINC000545381384    0.0800
     56 H56        -9.1666   -3.6512   58.5669 H       1  ZINC000545381384    0.0800
     57 H57        -9.3601   -4.1135   60.2747 H       1  ZINC000545381384    0.1000
     58 H58        -8.9388    1.5143   56.3947 H       1  ZINC000545381384    0.1300
     59 H59        -7.6715    3.1600   55.1166 H       1  ZINC000545381384    0.1300
     60 H60        -7.4777    2.9742   52.6733 H       1  ZINC000545381384    0.1400
     61 H61        -8.5456    1.1477   51.4704 H       1  ZINC000545381384    0.1400
@<TRIPOS>BOND
     1     1     2    1
     2     1    31    1
     3     1    32    1
     4     1    33    1
     5     2     3    1
     6     2    34    1
     7     2    35    1
     8     3     8    1
     9     3     4    1
    10     4     5    1
    11     4    36    1
    12     4    37    1
    13     5     6    1
    14     5    38    1
    15     5    39    1
    16     6    30   ar
    17     6     7   ar
    18     7     8    1
    19     7     9   ar
    20     8    40    1
    21     8    41    1
    22     9    10    1
    23     9    24   ar
    24    10    11    2
    25    10    12   am
    26    12    13    1
    27    12    42    1
    28    13    22    1
    29    13    14    2
    30    14    15    1
    31    14    43    1
    32    15    16    1
    33    15    21    2
    34    16    17    1
    35    16    44    1
    36    16    45    1
    37    17    18    1
    38    17    19    1
    39    17    20    1
    40    18    46    1
    41    18    47    1
    42    18    48    1
    43    19    49    1
    44    19    50    1
    45    19    51    1
    46    20    52    1
    47    20    53    1
    48    20    54    1
    49    21    22    1
    50    22    23    1
    51    23    55    1
    52    23    56    1
    53    23    57    1
    54    24    29   ar
    55    24    25   ar
    56    25    26   ar
    57    25    58    1
    58    26    27   ar
    59    26    59    1
    60    27    28   ar
    61    27    60    1
    62    28    29   ar
    63    28    61    1
    64    29    30   ar
@<TRIPOS>SUBSTRUCTURE
     1 ZINC000545381384        1 TEMP              0 ****  ****    0 ROOT


##########                                Name:    ZINC000655982608
##########                DOCK_Rotatable_Bonds:                   5
##########                         Heavy_Atoms:                  29
##########                    Molecular_Weight:             388.469
##########                DOCK_Rotatable_Bonds:                   5
##########                       Formal_Charge:          -0.0200006
##########                     HBond_Acceptors:                   6
##########                        HBond_Donors:                   0
##########                         Heavy_Atoms:                  29
##########                          Grid_Score:          -35.562248
##########                     Grid_vdw_energy:          -35.026745
##########                      Grid_es_energy:           -0.535503
##########           Internal_energy_repulsive:           23.948111

@<TRIPOS>MOLECULE
ZINC000655982608
 53 57 1 0 0
SMALL
USER_CHARGES


@<TRIPOS>ATOM
      1 C1        -12.3555   -0.7263   56.2474 C.3     1  ZINC000655982608   -0.1900
      2 C2        -11.0944   -0.6692   55.3829 C.3     1  ZINC000655982608    0.0800
      3 H3        -10.9671   -1.6185   54.8628 H       1  ZINC000655982608    0.1000
      4 C4        -11.2290    0.4595   54.3588 C.3     1  ZINC000655982608   -0.0300
      5 C5         -9.9679    0.5462   53.5382 C.2     1  ZINC000655982608    0.2000
      6 N6         -9.4581    1.6288   53.0019 N.2     1  ZINC000655982608   -0.4800
      7 C7         -8.3414    1.2276   52.3686 C.2     1  ZINC000655982608    0.1700
      8 C8         -7.3921    2.1042   51.5930 C.3     1  ZINC000655982608   -0.0100
      9 H9         -7.9042    2.5922   50.7637 H       1  ZINC000655982608    0.1300
     10 C10        -6.7196    3.1453   52.5177 C.3     1  ZINC000655982608   -0.1400
     11 C11        -5.3064    3.2534   51.9885 C.2     1  ZINC000655982608    0.5200
     12 O12        -4.5346    4.1523   52.2474 O.2     1  ZINC000655982608   -0.5000
     13 N13        -5.0306    2.2077   51.1901 N.am    1  ZINC000655982608   -0.5600
     14 C14        -3.8089    2.0149   50.5357 C.ar    1  ZINC000655982608    0.1600
     15 C15        -3.7868    1.5685   49.2208 C.ar    1  ZINC000655982608   -0.1600
     16 C16        -2.5793    1.3791   48.5776 C.ar    1  ZINC000655982608   -0.0900
     17 C17        -1.3933    1.6330   49.2416 C.ar    1  ZINC000655982608   -0.1400
     18 C18        -1.4119    2.0771   50.5510 C.ar    1  ZINC000655982608   -0.0900
     19 C19        -2.6162    2.2749   51.1977 C.ar    1  ZINC000655982608   -0.1600
     20 C20        -6.1758    1.2943   51.0921 C.3     1  ZINC000655982608    0.1100
     21 N21        -8.2312   -0.0545   52.5487 N.2     1  ZINC000655982608   -0.3700
     22 O22        -9.1524   -0.4646   53.2230 O.3     1  ZINC000655982608    0.0900
     23 N23        -9.9261   -0.4185   56.2373 N.3     1  ZINC000655982608   -0.4700
     24 C24        -9.9670    0.9473   56.8038 C.3     1  ZINC000655982608    0.0300
     25 C25        -9.2509    0.7713   58.1626 C.3     1  ZINC000655982608   -0.0800
     26 C26        -9.4772   -0.6945   58.4751 C.ar    1  ZINC000655982608   -0.1400
     27 C27        -9.3496   -1.4104   59.6465 C.ar    1  ZINC000655982608   -0.0800
     28 C28        -9.6277   -2.7655   59.6647 C.ar    1  ZINC000655982608   -0.1400
     29 C29       -10.0344   -3.4009   58.5062 C.ar    1  ZINC000655982608   -0.0900
     30 C30       -10.1616   -2.6897   57.3310 C.ar    1  ZINC000655982608   -0.1400
     31 C31        -9.8803   -1.3250   57.3036 C.ar    1  ZINC000655982608    0.1000
     32 H32       -13.2050   -1.0218   55.6316 H       1  ZINC000655982608    0.0700
     33 H33       -12.2155   -1.4541   57.0466 H       1  ZINC000655982608    0.0700
     34 H34       -12.5445    0.2563   56.6797 H       1  ZINC000655982608    0.0700
     35 H35       -12.0757    0.2563   53.7032 H       1  ZINC000655982608    0.1200
     36 H36       -11.3901    1.4041   54.8782 H       1  ZINC000655982608    0.1100
     37 H37        -7.2290    4.1062   52.4442 H       1  ZINC000655982608    0.1200
     38 H38        -6.7149    2.7928   53.5491 H       1  ZINC000655982608    0.1200
     39 H39        -4.7128    1.3693   48.7019 H       1  ZINC000655982608    0.1200
     40 H40        -2.5615    1.0320   47.5551 H       1  ZINC000655982608    0.1300
     41 H41        -0.4504    1.4838   48.7365 H       1  ZINC000655982608    0.1200
     42 H42        -0.4838    2.2740   51.0671 H       1  ZINC000655982608    0.1300
     43 H43        -2.6300    2.6217   52.2204 H       1  ZINC000655982608    0.1500
     44 H44        -6.0175    0.4217   51.7257 H       1  ZINC000655982608    0.0900
     45 H45        -6.3260    0.9875   50.0570 H       1  ZINC000655982608    0.1000
     46 H46        -9.4233    1.6460   56.1679 H       1  ZINC000655982608    0.1000
     47 H47       -10.9962    1.2751   56.9488 H       1  ZINC000655982608    0.0700
     48 H48        -8.1864    0.9861   58.0687 H       1  ZINC000655982608    0.0900
     49 H49        -9.7075    1.4033   58.9242 H       1  ZINC000655982608    0.0800
     50 H50        -9.0317   -0.9128   60.5508 H       1  ZINC000655982608    0.1200
     51 H51        -9.5269   -3.3261   60.5824 H       1  ZINC000655982608    0.1200
     52 H52       -10.2531   -4.4584   58.5211 H       1  ZINC000655982608    0.1300
     53 H53       -10.4794   -3.1920   56.4293 H       1  ZINC000655982608    0.1200
@<TRIPOS>BOND
     1     1     2    1
     2     1    32    1
     3     1    33    1
     4     1    34    1
     5     2     3    1
     6     2     4    1
     7     2    23    1
     8     4     5    1
     9     4    35    1
    10     4    36    1
    11     5    22    1
    12     5     6    2
    13     6     7    1
    14     7     8    1
    15     7    21    2
    16     8     9    1
    17     8    20    1
    18     8    10    1
    19    10    11    1
    20    10    37    1
    21    10    38    1
    22    11    12    2
    23    11    13   am
    24    13    14    1
    25    13    20    1
    26    14    19   ar
    27    14    15   ar
    28    15    16   ar
    29    15    39    1
    30    16    17   ar
    31    16    40    1
    32    17    18   ar
    33    17    41    1
    34    18    19   ar
    35    18    42    1
    36    19    43    1
    37    20    44    1
    38    20    45    1
    39    21    22    1
    40    23    31    1
    41    23    24    1
    42    24    25    1
    43    24    46    1
    44    24    47    1
    45    25    26    1
    46    25    48    1
    47    25    49    1
    48    26    31   ar
    49    26    27   ar
    50    27    28   ar
    51    27    50    1
    52    28    29   ar
    53    28    51    1
    54    29    30   ar
    55    29    52    1
    56    30    31   ar
    57    30    53    1
@<TRIPOS>SUBSTRUCTURE
     1 ZINC000655982608        1 TEMP              0 ****  ****    0 ROOT


##########                                Name:    ZINC000573650873
##########                DOCK_Rotatable_Bonds:                  10
##########                         Heavy_Atoms:                  28
##########                    Molecular_Weight:             418.843
##########                DOCK_Rotatable_Bonds:                  10
##########                       Formal_Charge:          -0.0500001
##########                     HBond_Acceptors:                   9
##########                        HBond_Donors:                   1
##########                         Heavy_Atoms:                  28
##########                          Grid_Score:          -35.561901
##########                     Grid_vdw_energy:          -36.089184
##########                      Grid_es_energy:            0.527284
##########           Internal_energy_repulsive:           12.098189

@<TRIPOS>MOLECULE
ZINC000573650873
 50 51 1 0 0
SMALL
USER_CHARGES


@<TRIPOS>ATOM
      1 C1        -11.9803   -1.4088   53.5420 C.3     1  ZINC000573650873   -0.1400
      2 C2        -12.2072   -2.9102   53.7299 C.3     1  ZINC000573650873    0.0100
      3 C3        -13.6425   -3.2626   53.3341 C.3     1  ZINC000573650873   -0.1400
      4 C4        -11.2292   -3.6881   52.8472 C.3     1  ZINC000573650873   -0.1500
      5 C5        -11.9803   -3.2757   55.1742 C.2     1  ZINC000573650873   -0.0100
      6 C6        -11.1836   -2.6284   56.0559 C.2     1  ZINC000573650873   -0.1800
      7 C7        -11.3281   -3.3739   57.2590 C.2     1  ZINC000573650873   -0.0300
      8 C8        -10.6702   -3.1024   58.5603 C.2     1  ZINC000573650873    0.6000
      9 O9         -9.5888   -3.5970   58.8092 O.2     1  ZINC000573650873   -0.5100
     10 N10       -11.2720   -2.3069   59.4667 N.am    1  ZINC000573650873   -0.5900
     11 C11       -10.6222   -2.0387   60.7521 C.3     1  ZINC000573650873    0.1200
     12 C12        -9.6389   -0.8772   60.5938 C.3     1  ZINC000573650873   -0.1000
     13 C13        -9.4587   -0.1872   61.9214 C.ar    1  ZINC000573650873   -0.0800
     14 C14        -9.8674    1.1239   62.0796 C.ar    1  ZINC000573650873   -0.1000
     15 C15        -9.7024    1.7574   63.2970 C.ar    1  ZINC000573650873   -0.1100
     16 C16        -9.1281    1.0791   64.3571 C.ar    1  ZINC000573650873   -0.0400
     17 Cl17       -8.9211    1.8739   65.8866 Cl      1  ZINC000573650873   -0.0700
     18 C18        -8.7192   -0.2331   64.1982 C.ar    1  ZINC000573650873   -0.1100
     19 C19        -8.8900   -0.8672   62.9820 C.ar    1  ZINC000573650873   -0.1000
     20 C20       -12.5761   -1.7105   59.1667 C.3     1  ZINC000573650873    0.0700
     21 C21       -13.6869   -2.6757   59.5857 C.3     1  ZINC000573650873    0.0600
     22 H22       -13.5244   -3.6441   59.1127 H       1  ZINC000573650873    0.1400
     23 O23       -13.6721   -2.8309   61.0062 O.3     1  ZINC000573650873   -0.5200
     24 C24       -15.0415   -2.1151   59.1479 C.3     1  ZINC000573650873    0.4300
     25 F25       -15.2558   -0.8780   59.7650 F       1  ZINC000573650873   -0.1700
     26 F26       -15.0513   -1.9512   57.7587 F       1  ZINC000573650873   -0.1700
     27 F27       -16.0561   -3.0037   59.5198 F       1  ZINC000573650873   -0.1800
     28 N28       -12.1598   -4.3482   56.9856 N.2     1  ZINC000573650873   -0.3400
     29 O29       -12.5327   -4.3015   55.8364 O.3     1  ZINC000573650873    0.1300
     30 H30       -12.6772   -0.8545   54.1708 H       1  ZINC000573650873    0.0600
     31 H31       -10.9578   -1.1578   53.8240 H       1  ZINC000573650873    0.0600
     32 H32       -12.1444   -1.1445   52.4974 H       1  ZINC000573650873    0.0700
     33 H33       -13.8066   -2.9982   52.2895 H       1  ZINC000573650873    0.0700
     34 H34       -13.8040   -4.3321   53.4679 H       1  ZINC000573650873    0.0600
     35 H35       -14.3393   -2.7084   53.9629 H       1  ZINC000573650873    0.0600
     36 H36       -10.2066   -3.4371   53.1292 H       1  ZINC000573650873    0.0600
     37 H37       -11.3907   -4.7577   52.9810 H       1  ZINC000573650873    0.0600
     38 H38       -11.3933   -3.4237   51.8026 H       1  ZINC000573650873    0.0700
     39 H39       -10.5785   -1.7502   55.8858 H       1  ZINC000573650873    0.1800
     40 H40       -11.3773   -1.7770   61.4933 H       1  ZINC000573650873    0.0900
     41 H41       -10.0842   -2.9282   61.0798 H       1  ZINC000573650873    0.1000
     42 H42        -8.6778   -1.2592   60.2494 H       1  ZINC000573650873    0.0800
     43 H43       -10.0298   -0.1669   59.8652 H       1  ZINC000573650873    0.0800
     44 H44       -10.3154    1.6535   61.2517 H       1  ZINC000573650873    0.1300
     45 H45       -10.0214    2.7818   63.4203 H       1  ZINC000573650873    0.1300
     46 H46        -8.2705   -0.7630   65.0254 H       1  ZINC000573650873    0.1300
     47 H47        -8.5711   -1.8916   62.8579 H       1  ZINC000573650873    0.1300
     48 H48       -12.6823   -0.7744   59.7147 H       1  ZINC000573650873    0.1000
     49 H49       -12.6488   -1.5154   58.0967 H       1  ZINC000573650873    0.1200
     50 H50       -14.3586   -3.4222   61.3444 H       1  ZINC000573650873    0.3900
@<TRIPOS>BOND
     1     1     2    1
     2     1    30    1
     3     1    31    1
     4     1    32    1
     5     2     3    1
     6     2     4    1
     7     2     5    1
     8     3    33    1
     9     3    34    1
    10     3    35    1
    11     4    36    1
    12     4    37    1
    13     4    38    1
    14     5    29    1
    15     5     6    2
    16     6     7    1
    17     6    39    1
    18     7     8    1
    19     7    28    2
    20     8     9    2
    21     8    10   am
    22    10    11    1
    23    10    20    1
    24    11    12    1
    25    11    40    1
    26    11    41    1
    27    12    13    1
    28    12    42    1
    29    12    43    1
    30    13    19   ar
    31    13    14   ar
    32    14    15   ar
    33    14    44    1
    34    15    16   ar
    35    15    45    1
    36    16    17    1
    37    16    18   ar
    38    18    19   ar
    39    18    46    1
    40    19    47    1
    41    20    21    1
    42    20    48    1
    43    20    49    1
    44    21    22    1
    45    21    23    1
    46    21    24    1
    47    23    50    1
    48    24    25    1
    49    24    26    1
    50    24    27    1
    51    28    29    1
@<TRIPOS>SUBSTRUCTURE
     1 ZINC000573650873        1 TEMP              0 ****  ****    0 ROOT


##########                                Name:    ZINC001061022329
##########                DOCK_Rotatable_Bonds:                   7
##########                         Heavy_Atoms:                  27
##########                    Molecular_Weight:             374.523
##########                DOCK_Rotatable_Bonds:                   7
##########                       Formal_Charge:           0.0800005
##########                     HBond_Acceptors:                   5
##########                        HBond_Donors:                   0
##########                         Heavy_Atoms:                  27
##########                          Grid_Score:          -35.561783
##########                     Grid_vdw_energy:          -33.893673
##########                      Grid_es_energy:           -1.668109
##########           Internal_energy_repulsive:           17.853573

@<TRIPOS>MOLECULE
ZINC001061022329
 61 64 1 0 0
SMALL
USER_CHARGES


@<TRIPOS>ATOM
      1 C1        -11.7177    3.5485   64.3928 C.3     1  ZINC001061022329   -0.1500
      2 C2        -10.5540    3.3207   65.3598 C.3     1  ZINC001061022329   -0.1200
      3 C3         -9.6188    2.2525   64.7896 C.3     1  ZINC001061022329    0.0800
      4 H4         -9.2918    2.5501   63.7933 H       1  ZINC001061022329    0.0600
      5 C5         -8.4002    2.1018   65.7024 C.3     1  ZINC001061022329   -0.1800
      6 O6        -10.3120    1.0054   64.7106 O.3     1  ZINC001061022329   -0.3500
      7 C7         -9.8650    0.1580   63.6504 C.3     1  ZINC001061022329    0.0500
      8 C8        -11.0334   -0.2047   62.7706 C.2     1  ZINC001061022329    0.5200
      9 O9        -12.1470    0.1865   63.0496 O.2     1  ZINC001061022329   -0.5100
     10 N10       -10.8410   -0.9637   61.6737 N.am    1  ZINC001061022329   -0.6100
     11 C11        -9.4976   -1.4467   61.3284 C.3     1  ZINC001061022329    0.1100
     12 C12        -9.1648   -0.9998   59.8999 C.3     1  ZINC001061022329   -0.1200
     13 C13       -10.2941   -1.4287   58.9662 C.3     1  ZINC001061022329   -0.0900
     14 C14        -9.9705   -1.2316   57.4788 C.3     1  ZINC001061022329    0.1200
     15 N15       -10.5931   -2.5549   57.2747 N.am    1  ZINC001061022329   -0.6400
     16 C16       -11.1832   -3.1694   56.2303 C.2     1  ZINC001061022329    0.5400
     17 O17       -11.6192   -4.2942   56.3558 O.2     1  ZINC001061022329   -0.5300
     18 C18       -11.3011   -2.4588   54.9066 C.3     1  ZINC001061022329   -0.0900
     19 H19       -10.4175   -1.8411   54.7461 H       1  ZINC001061022329    0.1000
     20 C20       -12.5486   -1.5725   54.9131 C.3     1  ZINC001061022329   -0.1000
     21 C21       -13.4969   -2.0124   53.7903 C.3     1  ZINC001061022329   -0.0600
     22 H22       -14.4161   -1.4271   53.8095 H       1  ZINC001061022329    0.0800
     23 C23       -13.7950   -3.4918   53.9847 C.2     1  ZINC001061022329   -0.1800
     24 C24       -12.7100   -4.2626   53.9791 C.2     1  ZINC001061022329   -0.1300
     25 C25       -11.4129   -3.4935   53.7794 C.3     1  ZINC001061022329   -0.0400
     26 H26       -10.5586   -4.1703   53.7769 H       1  ZINC001061022329    0.0900
     27 C27       -11.5166   -2.7431   52.4444 C.3     1  ZINC001061022329   -0.1100
     28 C28       -12.7697   -1.8401   52.4496 C.3     1  ZINC001061022329   -0.1100
     29 C29       -10.3092   -2.9354   58.6728 C.3     1  ZINC001061022329    0.1100
     30 C30       -11.6558   -0.8725   59.3747 C.3     1  ZINC001061022329   -0.1100
     31 C31       -11.9728   -1.3248   60.8099 C.3     1  ZINC001061022329    0.1100
     32 H32       -11.3301    3.8815   63.4300 H       1  ZINC001061022329    0.0500
     33 H33       -12.2679    2.6170   64.2605 H       1  ZINC001061022329    0.0600
     34 H34       -12.3840    4.3095   64.7990 H       1  ZINC001061022329    0.0600
     35 H35       -10.0038    4.2523   65.4921 H       1  ZINC001061022329    0.0800
     36 H36       -10.9417    2.9878   66.3226 H       1  ZINC001061022329    0.0700
     37 H37        -7.7339    1.3408   65.2962 H       1  ZINC001061022329    0.0600
     38 H38        -7.8714    3.0530   65.7626 H       1  ZINC001061022329    0.0700
     39 H39        -8.7271    1.8041   66.6987 H       1  ZINC001061022329    0.0700
     40 H40        -9.1136    0.6814   63.0591 H       1  ZINC001061022329    0.0800
     41 H41        -9.4302   -0.7496   64.0694 H       1  ZINC001061022329    0.0800
     42 H42        -8.7689   -1.0266   62.0218 H       1  ZINC001061022329    0.0900
     43 H43        -9.4745   -2.5350   61.3857 H       1  ZINC001061022329    0.0800
     44 H44        -9.0612    0.0849   59.8722 H       1  ZINC001061022329    0.0800
     45 H45        -8.2318   -1.4644   59.5808 H       1  ZINC001061022329    0.0800
     46 H46       -10.5183   -0.4116   57.0145 H       1  ZINC001061022329    0.0800
     47 H47        -8.9028   -1.2095   57.2602 H       1  ZINC001061022329    0.0900
     48 H48       -13.0553   -1.6658   55.8737 H       1  ZINC001061022329    0.0700
     49 H49       -12.2570   -0.5340   54.7560 H       1  ZINC001061022329    0.0700
     50 H50       -14.7942   -3.8802   54.1152 H       1  ZINC001061022329    0.1200
     51 H51       -12.7471   -5.3346   54.1050 H       1  ZINC001061022329    0.1200
     52 H52       -10.6312   -2.1225   52.3069 H       1  ZINC001061022329    0.0700
     53 H53       -11.5863   -3.4620   51.6281 H       1  ZINC001061022329    0.0700
     54 H54       -13.4338   -2.1359   51.6375 H       1  ZINC001061022329    0.0700
     55 H55       -12.4692   -0.8013   52.3128 H       1  ZINC001061022329    0.0700
     56 H56        -9.3422   -3.4196   58.8091 H       1  ZINC001061022329    0.0900
     57 H57       -11.1262   -3.4696   59.1577 H       1  ZINC001061022329    0.0800
     58 H58       -11.6332    0.2163   59.3299 H       1  ZINC001061022329    0.0800
     59 H59       -12.4218   -1.2502   58.6974 H       1  ZINC001061022329    0.0800
     60 H60       -12.1234   -2.4042   60.8280 H       1  ZINC001061022329    0.0700
     61 H61       -12.8740   -0.8221   61.1609 H       1  ZINC001061022329    0.1000
@<TRIPOS>BOND
     1     1     2    1
     2     1    32    1
     3     1    33    1
     4     1    34    1
     5     2     3    1
     6     2    35    1
     7     2    36    1
     8     3     4    1
     9     3     5    1
    10     3     6    1
    11     5    37    1
    12     5    38    1
    13     5    39    1
    14     6     7    1
    15     7     8    1
    16     7    40    1
    17     7    41    1
    18     8     9    2
    19     8    10   am
    20    10    31    1
    21    10    11    1
    22    11    12    1
    23    11    42    1
    24    11    43    1
    25    12    13    1
    26    12    44    1
    27    12    45    1
    28    13    29    1
    29    13    14    1
    30    13    30    1
    31    14    15    1
    32    14    46    1
    33    14    47    1
    34    15    16   am
    35    15    29    1
    36    16    17    2
    37    16    18    1
    38    18    19    1
    39    18    25    1
    40    18    20    1
    41    20    21    1
    42    20    48    1
    43    20    49    1
    44    21    22    1
    45    21    28    1
    46    21    23    1
    47    23    24    2
    48    23    50    1
    49    24    25    1
    50    24    51    1
    51    25    26    1
    52    25    27    1
    53    27    28    1
    54    27    52    1
    55    27    53    1
    56    28    54    1
    57    28    55    1
    58    29    56    1
    59    29    57    1
    60    30    31    1
    61    30    58    1
    62    30    59    1
    63    31    60    1
    64    31    61    1
@<TRIPOS>SUBSTRUCTURE
     1 ZINC001061022329        1 TEMP              0 ****  ****    0 ROOT


##########                                Name:    ZINC000129637895
##########                DOCK_Rotatable_Bonds:                   7
##########                         Heavy_Atoms:                  26
##########                    Molecular_Weight:             374.464
##########                DOCK_Rotatable_Bonds:                   7
##########                       Formal_Charge:        -5.51343e-07
##########                     HBond_Acceptors:                   8
##########                        HBond_Donors:                   1
##########                         Heavy_Atoms:                  26
##########                          Grid_Score:          -35.542240
##########                     Grid_vdw_energy:          -34.944496
##########                      Grid_es_energy:           -0.597743
##########           Internal_energy_repulsive:           18.216879

@<TRIPOS>MOLECULE
ZINC000129637895
 48 50 1 0 0
SMALL
USER_CHARGES


@<TRIPOS>ATOM
      1 C1         -9.7035   -1.8061   52.3155 C.3     1  ZINC000129637895   -0.1500
      2 C2        -10.7262   -1.2909   53.3301 C.3     1  ZINC000129637895   -0.0500
      3 C3        -11.9979   -2.0908   53.2119 C.2     1  ZINC000129637895    0.0300
      4 C4        -12.2737   -3.1439   54.0020 C.2     1  ZINC000129637895   -0.0200
      5 N5        -11.4596   -3.6442   55.0173 N.am    1  ZINC000129637895   -0.5900
      6 C6        -11.9555   -3.8075   56.2598 C.2     1  ZINC000129637895    0.5000
      7 O7        -13.1116   -3.5203   56.4946 O.2     1  ZINC000129637895   -0.4800
      8 C8        -11.0834   -4.3413   57.3471 C.2     1  ZINC000129637895    0.5200
      9 O9        -11.0069   -5.5386   57.5311 O.2     1  ZINC000129637895   -0.5100
     10 N10       -10.3808   -3.4938   58.1247 N.am    1  ZINC000129637895   -0.5800
     11 C11       -10.4638   -2.0393   57.9228 C.3     1  ZINC000129637895    0.0800
     12 C12       -10.7738   -1.3778   59.2698 C.3     1  ZINC000129637895    0.0400
     13 N13        -9.7832   -1.8114   60.2642 N.3     1  ZINC000129637895   -0.4900
     14 C14        -9.9329   -1.1060   61.4604 C.ar    1  ZINC000129637895    0.1500
     15 C15        -8.8960   -1.0759   62.3847 C.ar    1  ZINC000129637895   -0.2100
     16 C16        -9.0442   -0.3777   63.5676 C.ar    1  ZINC000129637895   -0.0500
     17 C17       -10.2231    0.2917   63.8348 C.ar    1  ZINC000129637895   -0.2300
     18 C18       -11.2624    0.2651   62.9150 C.ar    1  ZINC000129637895    0.1500
     19 O19       -12.4210    0.9245   63.1793 O.3     1  ZINC000129637895   -0.3200
     20 C20       -12.3764    2.3524   63.1488 C.3     1  ZINC000129637895    0.0300
     21 C21       -11.1159   -0.4293   61.7249 C.ar    1  ZINC000129637895   -0.1700
     22 C22        -9.8583   -3.2602   60.4945 C.3     1  ZINC000129637895    0.0400
     23 C23        -9.5155   -3.9986   59.2016 C.3     1  ZINC000129637895    0.1100
     24 S24       -13.8474   -3.7781   53.5265 S.3     1  ZINC000129637895    0.2400
     25 C25       -13.9794   -2.5739   52.3204 C.2     1  ZINC000129637895   -0.0300
     26 N26       -12.9367   -1.8148   52.3292 N.2     1  ZINC000129637895   -0.4500
     27 H27        -9.4916   -2.8566   52.5145 H       1  ZINC000129637895    0.0600
     28 H28       -10.1063   -1.7011   51.3082 H       1  ZINC000129637895    0.0500
     29 H29        -8.7836   -1.2274   52.4011 H       1  ZINC000129637895    0.0700
     30 H30       -10.3233   -1.3957   54.3375 H       1  ZINC000129637895    0.0900
     31 H31       -10.9381   -0.2403   53.1311 H       1  ZINC000129637895    0.0700
     32 H32       -10.5363   -3.8747   54.8294 H       1  ZINC000129637895    0.4300
     33 H33        -9.5123   -1.6676   57.5427 H       1  ZINC000129637895    0.0900
     34 H34       -11.2587   -1.8130   57.2122 H       1  ZINC000129637895    0.1400
     35 H35       -10.7300   -0.2941   59.1614 H       1  ZINC000129637895    0.1000
     36 H36       -11.7710   -1.6709   59.5981 H       1  ZINC000129637895    0.0500
     37 H37        -7.9739   -1.5989   62.1785 H       1  ZINC000129637895    0.1300
     38 H38        -8.2372   -0.3554   64.2849 H       1  ZINC000129637895    0.1300
     39 H39       -10.3361    0.8360   64.7607 H       1  ZINC000129637895    0.1300
     40 H40       -11.6608    2.7095   63.8892 H       1  ZINC000129637895    0.0600
     41 H41       -12.0697    2.6851   62.1571 H       1  ZINC000129637895    0.0600
     42 H42       -13.3648    2.7517   63.3764 H       1  ZINC000129637895    0.1000
     43 H43       -11.9233   -0.4507   61.0080 H       1  ZINC000129637895    0.1300
     44 H44        -9.1507   -3.5417   61.2743 H       1  ZINC000129637895    0.1000
     45 H45       -10.8683   -3.5272   60.8057 H       1  ZINC000129637895    0.0500
     46 H46        -9.6809   -5.0676   59.3357 H       1  ZINC000129637895    0.1100
     47 H47        -8.4729   -3.8164   58.9412 H       1  ZINC000129637895    0.0900
     48 H48       -14.8184   -2.4619   51.6496 H       1  ZINC000129637895    0.2000
@<TRIPOS>BOND
     1     1     2    1
     2     1    27    1
     3     1    28    1
     4     1    29    1
     5     2     3    1
     6     2    30    1
     7     2    31    1
     8     3    26    1
     9     3     4    2
    10     4     5    1
    11     4    24    1
    12     5     6   am
    13     5    32    1
    14     6     7    2
    15     6     8    1
    16     8     9    2
    17     8    10   am
    18    10    23    1
    19    10    11    1
    20    11    12    1
    21    11    33    1
    22    11    34    1
    23    12    13    1
    24    12    35    1
    25    12    36    1
    26    13    14    1
    27    13    22    1
    28    14    21   ar
    29    14    15   ar
    30    15    16   ar
    31    15    37    1
    32    16    17   ar
    33    16    38    1
    34    17    18   ar
    35    17    39    1
    36    18    19    1
    37    18    21   ar
    38    19    20    1
    39    20    40    1
    40    20    41    1
    41    20    42    1
    42    21    43    1
    43    22    23    1
    44    22    44    1
    45    22    45    1
    46    23    46    1
    47    23    47    1
    48    24    25    1
    49    25    26    2
    50    25    48    1
@<TRIPOS>SUBSTRUCTURE
     1 ZINC000129637895        1 TEMP              0 ****  ****    0 ROOT


##########                                Name:    ZINC000774689801
##########                DOCK_Rotatable_Bonds:                   4
##########                         Heavy_Atoms:                  24
##########                    Molecular_Weight:             347.395
##########                DOCK_Rotatable_Bonds:                   4
##########                       Formal_Charge:         -0.00999961
##########                     HBond_Acceptors:                   8
##########                        HBond_Donors:                   1
##########                         Heavy_Atoms:                  24
##########                          Grid_Score:          -35.523716
##########                     Grid_vdw_energy:          -34.598896
##########                      Grid_es_energy:           -0.924821
##########           Internal_energy_repulsive:            3.747664

@<TRIPOS>MOLECULE
ZINC000774689801
 41 44 1 0 0
SMALL
USER_CHARGES


@<TRIPOS>ATOM
      1 C1         -9.2262   -3.4020   59.5374 C.3     1  ZINC000774689801   -0.1200
      2 C2        -10.4118   -2.5104   59.8032 C.2     1  ZINC000774689801    0.0600
      3 C3        -11.5013   -2.5140   59.0184 C.2     1  ZINC000774689801   -0.2800
      4 C4        -11.6755   -3.3602   57.8360 C.2     1  ZINC000774689801    0.5500
      5 O5        -11.6362   -4.5711   57.9436 O.2     1  ZINC000774689801   -0.4900
      6 O6        -11.8796   -2.7967   56.6274 O.3     1  ZINC000774689801   -0.3400
      7 C7        -11.5468   -3.5969   55.4624 C.3     1  ZINC000774689801    0.0900
      8 C8        -12.0186   -2.8769   54.1975 C.3     1  ZINC000774689801   -0.1300
      9 H9        -13.1064   -2.8093   54.1814 H       1  ZINC000774689801    0.1200
     10 C10       -11.3876   -1.4679   54.1095 C.3     1  ZINC000774689801   -0.1300
     11 C11       -11.1464   -1.3251   52.5904 C.3     1  ZINC000774689801    0.1000
     12 N12       -11.0239   -2.6967   52.0827 N.am    1  ZINC000774689801   -0.7400
     13 C13       -11.5140   -3.5904   52.9626 C.2     1  ZINC000774689801    0.5200
     14 O14       -11.5425   -4.7906   52.7908 O.2     1  ZINC000774689801   -0.5100
     15 S15       -12.6878   -1.3628   59.6084 S.3     1  ZINC000774689801    0.3000
     16 C16       -11.6412   -0.8944   60.9431 C.2     1  ZINC000774689801    0.1000
     17 C17       -10.4535   -1.6309   60.8834 C.2     1  ZINC000774689801   -0.2500
     18 C18        -9.4513   -1.3668   61.9333 C.2     1  ZINC000774689801    0.5700
     19 O19        -8.3920   -1.9680   61.9472 O.2     1  ZINC000774689801   -0.5000
     20 N20        -9.7335   -0.4419   62.8806 N.am    1  ZINC000774689801   -0.5500
     21 C21        -8.9088   -0.0089   64.0218 C.3     1  ZINC000774689801    0.0900
     22 C22        -9.5093    1.3357   64.4812 C.3     1  ZINC000774689801   -0.1300
     23 C23       -10.9756    1.2018   64.0167 C.3     1  ZINC000774689801   -0.0800
     24 C24       -10.9151    0.2251   62.8540 C.2     1  ZINC000774689801    0.4200
     25 N25       -11.8141   -0.0023   61.9336 N.2     1  ZINC000774689801   -0.5100
     26 H26        -9.3624   -4.3515   60.0551 H       1  ZINC000774689801    0.0800
     27 H27        -9.1397   -3.5816   58.4658 H       1  ZINC000774689801    0.1000
     28 H28        -8.3192   -2.9178   59.8991 H       1  ZINC000774689801    0.0800
     29 H29       -10.4674   -3.7413   55.4171 H       1  ZINC000774689801    0.0900
     30 H30       -12.0404   -4.5661   55.5342 H       1  ZINC000774689801    0.0800
     31 H31       -12.0809   -0.7069   54.4676 H       1  ZINC000774689801    0.1000
     32 H32       -10.4473   -1.4266   54.6593 H       1  ZINC000774689801    0.0900
     33 H33       -11.9916   -0.8228   52.1198 H       1  ZINC000774689801    0.0800
     34 H34       -10.2264   -0.7708   52.4050 H       1  ZINC000774689801    0.0800
     35 H35       -10.6406   -2.9298   51.2227 H       1  ZINC000774689801    0.4100
     36 H36        -8.9654   -0.7415   64.8270 H       1  ZINC000774689801    0.1000
     37 H37        -7.8739    0.1282   63.7082 H       1  ZINC000774689801    0.1000
     38 H38        -9.4514    1.4387   65.5648 H       1  ZINC000774689801    0.1100
     39 H39        -9.0177    2.1722   63.9845 H       1  ZINC000774689801    0.0900
     40 H40       -11.5944    0.8007   64.8193 H       1  ZINC000774689801    0.1200
     41 H41       -11.3595    2.1663   63.6843 H       1  ZINC000774689801    0.1200
@<TRIPOS>BOND
     1     1     2    1
     2     1    26    1
     3     1    27    1
     4     1    28    1
     5     2    17    1
     6     2     3    2
     7     3     4    1
     8     3    15    1
     9     4     5    2
    10     4     6    1
    11     6     7    1
    12     7     8    1
    13     7    29    1
    14     7    30    1
    15     8     9    1
    16     8    13    1
    17     8    10    1
    18    10    11    1
    19    10    31    1
    20    10    32    1
    21    11    12    1
    22    11    33    1
    23    11    34    1
    24    12    13   am
    25    12    35    1
    26    13    14    2
    27    15    16    1
    28    16    25    1
    29    16    17    2
    30    17    18    1
    31    18    19    2
    32    18    20   am
    33    20    24    1
    34    20    21    1
    35    21    22    1
    36    21    36    1
    37    21    37    1
    38    22    23    1
    39    22    38    1
    40    22    39    1
    41    23    24    1
    42    23    40    1
    43    23    41    1
    44    24    25    2
@<TRIPOS>SUBSTRUCTURE
     1 ZINC000774689801        1 TEMP              0 ****  ****    0 ROOT


##########                                Name:    ZINC000550217006
##########                DOCK_Rotatable_Bonds:                   7
##########                         Heavy_Atoms:                  27
##########                    Molecular_Weight:             367.404
##########                DOCK_Rotatable_Bonds:                   7
##########                       Formal_Charge:          0.00999951
##########                     HBond_Acceptors:                   7
##########                        HBond_Donors:                   3
##########                         Heavy_Atoms:                  27
##########                          Grid_Score:          -35.484692
##########                     Grid_vdw_energy:          -33.575432
##########                      Grid_es_energy:           -1.909258
##########           Internal_energy_repulsive:            9.376508

@<TRIPOS>MOLECULE
ZINC000550217006
 48 50 1 0 0
SMALL
USER_CHARGES


@<TRIPOS>ATOM
      1 C1         -7.4530    3.4932   56.5749 C.3     1  ZINC000550217006   -0.1500
      2 C2         -6.0725    2.9982   57.0113 C.3     1  ZINC000550217006    0.0500
      3 O3         -5.0782    3.5201   56.1277 O.3     1  ZINC000550217006   -0.3100
      4 C4         -3.8161    3.0346   56.2634 C.ar    1  ZINC000550217006    0.1400
      5 C5         -3.4898    2.2437   57.3553 C.ar    1  ZINC000550217006   -0.2100
      6 C6         -2.2061    1.7509   57.4908 C.ar    1  ZINC000550217006   -0.0800
      7 C7         -1.2472    2.0459   56.5397 C.ar    1  ZINC000550217006   -0.1600
      8 C8         -1.5699    2.8345   55.4505 C.ar    1  ZINC000550217006   -0.0700
      9 C9         -2.8533    3.3245   55.3073 C.ar    1  ZINC000550217006   -0.1200
     10 C10        -3.2045    4.1834   54.1199 C.3     1  ZINC000550217006   -0.0800
     11 C11        -3.8922    3.3258   53.0556 C.3     1  ZINC000550217006    0.1300
     12 N12        -2.9001    2.8727   52.0776 N.am    1  ZINC000550217006   -0.7200
     13 C13        -3.2880    2.1445   51.0120 C.2     1  ZINC000550217006    0.5600
     14 O14        -4.4607    1.8623   50.8632 O.2     1  ZINC000550217006   -0.5300
     15 C15        -2.2856    1.6881   50.0225 C.ar    1  ZINC000550217006   -0.0800
     16 C16        -0.9222    1.7896   50.3092 C.ar    1  ZINC000550217006   -0.1000
     17 C17         0.0044    1.3663   49.3882 C.ar    1  ZINC000550217006   -0.0500
     18 C18        -0.4020    0.8290   48.1555 C.ar    1  ZINC000550217006   -0.1300
     19 C19        -1.7622    0.7230   47.8669 C.ar    1  ZINC000550217006    0.1800
     20 C20        -2.6986    1.1527   48.8089 C.ar    1  ZINC000550217006   -0.0900
     21 N21        -2.2519    0.1965   46.6838 N.am    1  ZINC000550217006   -0.6600
     22 C22        -1.7522    0.4175   45.4718 C.2     1  ZINC000550217006    0.5100
     23 O23        -2.3058   -0.0700   44.5092 O.2     1  ZINC000550217006   -0.5100
     24 C24        -0.5207    1.2546   45.2592 C.3     1  ZINC000550217006    0.0900
     25 N25         0.6152    0.5966   45.9048 N.am    1  ZINC000550217006   -0.7100
     26 C26         0.6510    0.4035   47.2221 C.2     1  ZINC000550217006    0.5600
     27 O27         1.6216   -0.1636   47.6847 O.2     1  ZINC000550217006   -0.5200
     28 H28        -7.6559    3.1545   55.5589 H       1  ZINC000550217006    0.0700
     29 H29        -8.2114    3.0952   57.2489 H       1  ZINC000550217006    0.0800
     30 H30        -7.4749    4.5825   56.6059 H       1  ZINC000550217006    0.0700
     31 H31        -5.8696    3.3370   58.0273 H       1  ZINC000550217006    0.0600
     32 H32        -6.0506    1.9089   56.9803 H       1  ZINC000550217006    0.0600
     33 H33        -4.2383    2.0136   58.0990 H       1  ZINC000550217006    0.1300
     34 H34        -1.9515    1.1351   58.3407 H       1  ZINC000550217006    0.1300
     35 H35        -0.2442    1.6600   56.6475 H       1  ZINC000550217006    0.1300
     36 H36        -0.8189    3.0638   54.7089 H       1  ZINC000550217006    0.1300
     37 H37        -3.8777    4.9807   54.4347 H       1  ZINC000550217006    0.0800
     38 H38        -2.2955    4.6183   53.7044 H       1  ZINC000550217006    0.0800
     39 H39        -4.3560    2.4610   53.5299 H       1  ZINC000550217006    0.0700
     40 H40        -4.6565    3.9167   52.5509 H       1  ZINC000550217006    0.0700
     41 H41        -1.9638    3.0969   52.1969 H       1  ZINC000550217006    0.4000
     42 H42        -0.5973    2.2006   51.2537 H       1  ZINC000550217006    0.1400
     43 H43         1.0573    1.4477   49.6140 H       1  ZINC000550217006    0.1500
     44 H44        -3.7532    1.0755   48.5890 H       1  ZINC000550217006    0.1500
     45 H45        -3.0265   -0.3842   46.7445 H       1  ZINC000550217006    0.4200
     46 H46        -0.3265    1.3539   44.1912 H       1  ZINC000550217006    0.1300
     47 H47        -0.6693    2.2410   45.6985 H       1  ZINC000550217006    0.1000
     48 H48         1.3591    0.2936   45.3611 H       1  ZINC000550217006    0.4200
@<TRIPOS>BOND
     1     1     2    1
     2     1    28    1
     3     1    29    1
     4     1    30    1
     5     2     3    1
     6     2    31    1
     7     2    32    1
     8     3     4    1
     9     4     9   ar
    10     4     5   ar
    11     5     6   ar
    12     5    33    1
    13     6     7   ar
    14     6    34    1
    15     7     8   ar
    16     7    35    1
    17     8     9   ar
    18     8    36    1
    19     9    10    1
    20    10    11    1
    21    10    37    1
    22    10    38    1
    23    11    12    1
    24    11    39    1
    25    11    40    1
    26    12    13   am
    27    12    41    1
    28    13    14    2
    29    13    15    1
    30    15    20   ar
    31    15    16   ar
    32    16    17   ar
    33    16    42    1
    34    17    18   ar
    35    17    43    1
    36    18    26    1
    37    18    19   ar
    38    19    20   ar
    39    19    21    1
    40    20    44    1
    41    21    22   am
    42    21    45    1
    43    22    23    2
    44    22    24    1
    45    24    25    1
    46    24    46    1
    47    24    47    1
    48    25    26   am
    49    25    48    1
    50    26    27    2
@<TRIPOS>SUBSTRUCTURE
     1 ZINC000550217006        1 TEMP              0 ****  ****    0 ROOT


##########                                Name:    ZINC000074782190
##########                DOCK_Rotatable_Bonds:                   9
##########                         Heavy_Atoms:                  25
##########                    Molecular_Weight:             341.453
##########                DOCK_Rotatable_Bonds:                   9
##########                       Formal_Charge:          -0.0200006
##########                     HBond_Acceptors:                   5
##########                        HBond_Donors:                   1
##########                         Heavy_Atoms:                  25
##########                          Grid_Score:          -35.478329
##########                     Grid_vdw_energy:          -34.644665
##########                      Grid_es_energy:           -0.833662
##########           Internal_energy_repulsive:           26.589647

@<TRIPOS>MOLECULE
ZINC000074782190
 52 53 1 0 0
SMALL
USER_CHARGES


@<TRIPOS>ATOM
      1 C1        -12.3463    0.4032   61.9666 C.3     1  ZINC000074782190   -0.1100
      2 C2        -11.0642    0.2560   62.7447 C.ar    1  ZINC000074782190   -0.1200
      3 C3        -10.8024    1.0945   63.8106 C.ar    1  ZINC000074782190   -0.0800
      4 C4         -9.6257    0.9604   64.5247 C.ar    1  ZINC000074782190   -0.1500
      5 C5         -8.7090   -0.0131   64.1741 C.ar    1  ZINC000074782190   -0.0900
      6 C6         -8.9663   -0.8547   63.1090 C.ar    1  ZINC000074782190   -0.2100
      7 C7        -10.1482   -0.7256   62.3944 C.ar    1  ZINC000074782190    0.1300
      8 O8        -10.4037   -1.5521   61.3462 O.3     1  ZINC000074782190   -0.3000
      9 C9         -9.4348   -1.5870   60.2965 C.3     1  ZINC000074782190    0.0700
     10 H10        -8.4331   -1.5846   60.7263 H       1  ZINC000074782190    0.0800
     11 C11        -9.6084   -0.3586   59.4011 C.3     1  ZINC000074782190   -0.1800
     12 C12        -9.6297   -2.8561   59.4646 C.3     1  ZINC000074782190    0.1400
     13 N13       -11.0313   -2.9586   59.0511 N.am    1  ZINC000074782190   -0.7500
     14 C14       -11.3912   -3.8471   58.1036 C.2     1  ZINC000074782190    0.7100
     15 O15       -10.5525   -4.5635   57.5921 O.2     1  ZINC000074782190   -0.5900
     16 N16       -12.6806   -3.9414   57.7232 N.am    1  ZINC000074782190   -0.6200
     17 C17       -13.0718   -4.9071   56.6934 C.3     1  ZINC000074782190    0.1800
     18 C18       -13.2147   -4.2002   55.3701 C.ar    1  ZINC000074782190   -0.1600
     19 C19       -14.4672   -4.0112   54.8069 C.ar    1  ZINC000074782190   -0.0500
     20 C20       -14.5507   -3.3550   53.5881 C.ar    1  ZINC000074782190   -0.1800
     21 C21       -13.3908   -2.9143   52.9798 C.ar    1  ZINC000074782190    0.1000
     22 N22       -12.2157   -3.1117   53.5451 N.ar    1  ZINC000074782190   -0.4900
     23 C23       -12.0990   -3.7269   54.7054 C.ar    1  ZINC000074782190    0.1100
     24 C24       -13.6912   -3.0781   58.3396 C.3     1  ZINC000074782190    0.1300
     25 C25       -13.8856   -1.8269   57.4807 C.3     1  ZINC000074782190   -0.1800
     26 C26       -15.0158   -3.8367   58.4426 C.3     1  ZINC000074782190   -0.1800
     27 H27       -13.1183   -0.2209   62.4169 H       1  ZINC000074782190    0.0700
     28 H28       -12.6651    1.4455   61.9851 H       1  ZINC000074782190    0.0600
     29 H29       -12.1832    0.0915   60.9350 H       1  ZINC000074782190    0.0700
     30 H30       -11.5171    1.8558   64.0864 H       1  ZINC000074782190    0.1300
     31 H31        -9.4226    1.6174   65.3574 H       1  ZINC000074782190    0.1200
     32 H32        -7.7906   -0.1157   64.7331 H       1  ZINC000074782190    0.1200
     33 H33        -8.2496   -1.6148   62.8353 H       1  ZINC000074782190    0.1300
     34 H34       -10.6101   -0.3610   58.9713 H       1  ZINC000074782190    0.0700
     35 H35        -9.4695    0.5456   59.9938 H       1  ZINC000074782190    0.0700
     36 H36        -8.8693   -0.3852   58.6004 H       1  ZINC000074782190    0.0800
     37 H37        -8.9925   -2.8130   58.5813 H       1  ZINC000074782190    0.0800
     38 H38        -9.3627   -3.7274   60.0629 H       1  ZINC000074782190    0.0900
     39 H39       -11.7004   -2.3871   59.4593 H       1  ZINC000074782190    0.4100
     40 H40       -12.3081   -5.6804   56.6116 H       1  ZINC000074782190    0.0900
     41 H41       -14.0234   -5.3636   56.9660 H       1  ZINC000074782190    0.1000
     42 H42       -15.3569   -4.3669   55.3053 H       1  ZINC000074782190    0.1400
     43 H43       -15.5100   -3.1907   53.1202 H       1  ZINC000074782190    0.1300
     44 H44       -13.4473   -2.4028   52.0303 H       1  ZINC000074782190    0.1600
     45 H45       -11.1195   -3.8702   55.1374 H       1  ZINC000074782190    0.1500
     46 H46       -13.3609   -2.7867   59.3366 H       1  ZINC000074782190    0.1000
     47 H47       -14.3016   -2.1108   56.5140 H       1  ZINC000074782190    0.0600
     48 H48       -14.5694   -1.1433   57.9839 H       1  ZINC000074782190    0.0700
     49 H49       -12.9241   -1.3352   57.3322 H       1  ZINC000074782190    0.0600
     50 H50       -14.9078   -4.6627   59.1457 H       1  ZINC000074782190    0.0700
     51 H51       -15.7955   -3.1606   58.7933 H       1  ZINC000074782190    0.0700
     52 H52       -15.2879   -4.2276   57.4620 H       1  ZINC000074782190    0.0700
@<TRIPOS>BOND
     1     1     2    1
     2     1    27    1
     3     1    28    1
     4     1    29    1
     5     2     7   ar
     6     2     3   ar
     7     3     4   ar
     8     3    30    1
     9     4     5   ar
    10     4    31    1
    11     5     6   ar
    12     5    32    1
    13     6     7   ar
    14     6    33    1
    15     7     8    1
    16     8     9    1
    17     9    10    1
    18     9    11    1
    19     9    12    1
    20    11    34    1
    21    11    35    1
    22    11    36    1
    23    12    13    1
    24    12    37    1
    25    12    38    1
    26    13    14   am
    27    13    39    1
    28    14    15    2
    29    14    16   am
    30    16    17    1
    31    16    24    1
    32    17    18    1
    33    17    40    1
    34    17    41    1
    35    18    23   ar
    36    18    19   ar
    37    19    20   ar
    38    19    42    1
    39    20    21   ar
    40    20    43    1
    41    21    22   ar
    42    21    44    1
    43    22    23   ar
    44    23    45    1
    45    24    25    1
    46    24    26    1
    47    24    46    1
    48    25    47    1
    49    25    48    1
    50    25    49    1
    51    26    50    1
    52    26    51    1
    53    26    52    1
@<TRIPOS>SUBSTRUCTURE
     1 ZINC000074782190        1 TEMP              0 ****  ****    0 ROOT


##########                                Name:    ZINC000992031068
##########                DOCK_Rotatable_Bonds:                   8
##########                         Heavy_Atoms:                  25
##########                    Molecular_Weight:             342.401
##########                DOCK_Rotatable_Bonds:                   8
##########                       Formal_Charge:           0.0199999
##########                     HBond_Acceptors:                   8
##########                        HBond_Donors:                   2
##########                         Heavy_Atoms:                  25
##########                          Grid_Score:          -35.449154
##########                     Grid_vdw_energy:          -35.541702
##########                      Grid_es_energy:            0.092550
##########           Internal_energy_repulsive:            8.517153

@<TRIPOS>MOLECULE
ZINC000992031068
 47 49 1 0 0
SMALL
USER_CHARGES


@<TRIPOS>ATOM
      1 C1        -10.5849    3.0287   63.6059 C.3     1  ZINC000992031068   -0.1100
      2 C2         -9.9093    1.6860   63.7157 C.ar    1  ZINC000992031068    0.1800
      3 C3         -9.8544    0.8354   62.6208 C.ar    1  ZINC000992031068   -0.1700
      4 C4         -9.2176   -0.3969   62.7727 C.ar    1  ZINC000992031068    0.1300
      5 C5         -9.1290   -1.3459   61.6346 C.2     1  ZINC000992031068    0.5700
      6 O6         -8.7292   -2.4782   61.8177 O.2     1  ZINC000992031068   -0.5200
      7 N7         -9.4921   -0.9512   60.3981 N.am    1  ZINC000992031068   -0.7100
      8 C8         -9.4063   -1.8882   59.2753 C.3     1  ZINC000992031068    0.1300
      9 C9        -10.7252   -2.6530   59.1472 C.3     1  ZINC000992031068   -0.1200
     10 C10       -11.8488   -1.8370   58.4865 C.3     1  ZINC000992031068   -0.1400
     11 C11       -12.2431   -3.1264   57.7469 C.3     1  ZINC000992031068    0.1200
     12 N12       -12.6272   -2.9077   56.3502 N.am    1  ZINC000992031068   -0.7200
     13 C13       -13.3842   -3.8198   55.7088 C.2     1  ZINC000992031068    0.5200
     14 O14       -13.7487   -4.8208   56.2883 O.2     1  ZINC000992031068   -0.5200
     15 C15       -13.7778   -3.5957   54.2714 C.3     1  ZINC000992031068   -0.0800
     16 C16       -12.5725   -3.1503   53.4842 C.2     1  ZINC000992031068    0.1000
     17 C17       -11.2977   -3.5616   53.6761 C.2     1  ZINC000992031068   -0.2500
     18 C18       -10.4896   -2.9105   52.7383 C.2     1  ZINC000992031068    0.0500
     19 N19       -11.2518   -2.1362   52.0095 N.2     1  ZINC000992031068   -0.2900
     20 N20       -12.5719   -2.2742   52.4577 N.pl3   1  ZINC000992031068   -0.3700
     21 C21       -13.7434   -1.5827   51.9141 C.3     1  ZINC000992031068    0.1000
     22 C22       -10.7838   -3.5790   57.9209 C.3     1  ZINC000992031068   -0.1400
     23 N23        -8.6905   -0.7070   63.9546 N.ar    1  ZINC000992031068   -0.5000
     24 C24        -8.7665    0.1316   64.9658 C.ar    1  ZINC000992031068    0.3000
     25 N25        -9.3567    1.3058   64.8549 N.ar    1  ZINC000992031068   -0.5100
     26 H26        -9.8577    3.7764   63.2892 H       1  ZINC000992031068    0.0900
     27 H27       -11.3898    2.9716   62.8732 H       1  ZINC000992031068    0.0900
     28 H28       -10.9955    3.3092   64.5759 H       1  ZINC000992031068    0.0900
     29 H29       -10.2935    1.1194   61.6759 H       1  ZINC000992031068    0.1600
     30 H30        -9.8102   -0.0466   60.2516 H       1  ZINC000992031068    0.4100
     31 H31        -9.2156   -1.3360   58.3550 H       1  ZINC000992031068    0.0700
     32 H32        -8.5933   -2.5927   59.4512 H       1  ZINC000992031068    0.0800
     33 H33       -11.0247   -3.1387   60.0759 H       1  ZINC000992031068    0.1000
     34 H34       -12.6056   -1.4876   59.1887 H       1  ZINC000992031068    0.0800
     35 H35       -11.4860   -1.0488   57.8268 H       1  ZINC000992031068    0.0900
     36 H36       -12.9601   -3.7404   58.2918 H       1  ZINC000992031068    0.1200
     37 H37       -12.3367   -2.1065   55.8870 H       1  ZINC000992031068    0.4000
     38 H38       -14.1633   -4.5245   53.8511 H       1  ZINC000992031068    0.1200
     39 H39       -14.5488   -2.8268   54.2216 H       1  ZINC000992031068    0.1100
     40 H40       -10.9633   -4.2675   54.4220 H       1  ZINC000992031068    0.1500
     41 H41        -9.4208   -3.0265   52.6342 H       1  ZINC000992031068    0.1800
     42 H42       -14.1792   -2.1805   51.1136 H       1  ZINC000992031068    0.0800
     43 H43       -14.4808   -1.4410   52.7043 H       1  ZINC000992031068    0.0800
     44 H44       -13.4420   -0.6121   51.5201 H       1  ZINC000992031068    0.0900
     45 H45       -10.1297   -3.2671   57.1065 H       1  ZINC000992031068    0.0900
     46 H46       -10.6808   -4.6360   58.1666 H       1  ZINC000992031068    0.0800
     47 H47        -8.3292   -0.1482   65.9128 H       1  ZINC000992031068    0.2100
@<TRIPOS>BOND
     1     1     2    1
     2     1    26    1
     3     1    27    1
     4     1    28    1
     5     2    25   ar
     6     2     3   ar
     7     3     4   ar
     8     3    29    1
     9     4     5    1
    10     4    23   ar
    11     5     6    2
    12     5     7   am
    13     7     8    1
    14     7    30    1
    15     8     9    1
    16     8    31    1
    17     8    32    1
    18     9    22    1
    19     9    10    1
    20     9    33    1
    21    10    11    1
    22    10    34    1
    23    10    35    1
    24    11    12    1
    25    11    22    1
    26    11    36    1
    27    12    13   am
    28    12    37    1
    29    13    14    2
    30    13    15    1
    31    15    16    1
    32    15    38    1
    33    15    39    1
    34    16    20    1
    35    16    17    2
    36    17    18    1
    37    17    40    1
    38    18    19    2
    39    18    41    1
    40    19    20    1
    41    20    21    1
    42    21    42    1
    43    21    43    1
    44    21    44    1
    45    22    45    1
    46    22    46    1
    47    23    24   ar
    48    24    25   ar
    49    24    47    1
@<TRIPOS>SUBSTRUCTURE
     1 ZINC000992031068        1 TEMP              0 ****  ****    0 ROOT


##########                                Name:    ZINC000655235556
##########                DOCK_Rotatable_Bonds:                   6
##########                         Heavy_Atoms:                  23
##########                    Molecular_Weight:             336.778
##########                DOCK_Rotatable_Bonds:                   6
##########                       Formal_Charge:         -0.00999996
##########                     HBond_Acceptors:                   8
##########                        HBond_Donors:                   2
##########                         Heavy_Atoms:                  23
##########                          Grid_Score:          -35.446781
##########                     Grid_vdw_energy:          -34.212616
##########                      Grid_es_energy:           -1.234164
##########           Internal_energy_repulsive:           13.349705

@<TRIPOS>MOLECULE
ZINC000655235556
 40 42 1 0 0
SMALL
USER_CHARGES


@<TRIPOS>ATOM
      1 C1        -11.0049   -3.3321   52.6625 C.3     1  ZINC000655235556    0.0200
      2 O2        -10.3018   -2.1939   52.1601 O.3     1  ZINC000655235556   -0.2700
      3 C3        -10.1182   -1.1567   53.0150 C.ar    1  ZINC000655235556    0.2000
      4 C4        -11.0527   -0.8972   54.0052 C.ar    1  ZINC000655235556   -0.2100
      5 C5        -10.8639    0.1600   54.8759 C.ar    1  ZINC000655235556    0.0300
      6 Cl6       -12.0384    0.4791   56.1138 Cl      1  ZINC000655235556   -0.0500
      7 C7         -9.7413    0.9664   54.7662 C.ar    1  ZINC000655235556   -0.1600
      8 C8         -8.8031    0.7218   53.7874 C.ar    1  ZINC000655235556   -0.0300
      9 C9         -8.9795   -0.3462   52.9043 C.ar    1  ZINC000655235556   -0.1700
     10 C10        -7.9785   -0.6134   51.8547 C.2     1  ZINC000655235556    0.5700
     11 O11        -7.8240   -1.7444   51.4356 O.2     1  ZINC000655235556   -0.5100
     12 N12        -7.2349    0.3960   51.3600 N.am    1  ZINC000655235556   -0.7300
     13 C13        -6.2418    0.1309   50.3161 C.3     1  ZINC000655235556    0.2100
     14 C14        -5.0470    1.0263   50.5204 C.2     1  ZINC000655235556    0.2600
     15 N15        -4.1182    1.2820   49.6352 N.2     1  ZINC000655235556   -0.5100
     16 C16        -3.2152    2.1126   50.1546 C.2     1  ZINC000655235556    0.2200
     17 C17        -1.9963    2.6383   49.4411 C.3     1  ZINC000655235556    0.1700
     18 H18        -1.7132    3.6055   49.8565 H       1  ZINC000655235556    0.1100
     19 C19        -2.2938    2.7828   47.9331 C.3     1  ZINC000655235556   -0.1400
     20 C20        -0.9615    2.3132   47.2878 C.3     1  ZINC000655235556   -0.1500
     21 C21        -0.5183    1.2190   48.2914 C.3     1  ZINC000655235556    0.0500
     22 O22        -0.9128    1.7124   49.5835 O.3     1  ZINC000655235556   -0.3700
     23 N23        -3.5583    2.3981   51.3831 N.2     1  ZINC000655235556   -0.2800
     24 N24        -4.7526    1.7060   51.6422 N.pl3   1  ZINC000655235556   -0.4700
     25 H25       -10.4647   -3.7462   53.5139 H       1  ZINC000655235556    0.0600
     26 H26       -12.0043   -3.0318   52.9776 H       1  ZINC000655235556    0.0600
     27 H27       -11.0821   -4.0863   51.8794 H       1  ZINC000655235556    0.1100
     28 H28       -11.9294   -1.5212   54.0965 H       1  ZINC000655235556    0.1500
     29 H29        -9.6020    1.7900   55.4507 H       1  ZINC000655235556    0.1400
     30 H30        -7.9304    1.3527   53.7054 H       1  ZINC000655235556    0.1400
     31 H31        -7.3573    1.2980   51.6951 H       1  ZINC000655235556    0.4000
     32 H32        -5.9279   -0.9116   50.3695 H       1  ZINC000655235556    0.1000
     33 H33        -6.6809    0.3284   49.3382 H       1  ZINC000655235556    0.1100
     34 H34        -3.1183    2.1344   47.6365 H       1  ZINC000655235556    0.0800
     35 H35        -2.5041    3.8212   47.6770 H       1  ZINC000655235556    0.0900
     36 H36        -1.1321    1.8918   46.2971 H       1  ZINC000655235556    0.0900
     37 H37        -0.2367    3.1262   47.2474 H       1  ZINC000655235556    0.0800
     38 H38        -1.0247    0.2787   48.0739 H       1  ZINC000655235556    0.0600
     39 H39         0.5628    1.0854   48.2522 H       1  ZINC000655235556    0.0900
     40 H40        -5.2606    1.7122   52.4685 H       1  ZINC000655235556    0.4400
@<TRIPOS>BOND
     1     1     2    1
     2     1    25    1
     3     1    26    1
     4     1    27    1
     5     2     3    1
     6     3     9   ar
     7     3     4   ar
     8     4     5   ar
     9     4    28    1
    10     5     6    1
    11     5     7   ar
    12     7     8   ar
    13     7    29    1
    14     8     9   ar
    15     8    30    1
    16     9    10    1
    17    10    11    2
    18    10    12   am
    19    12    13    1
    20    12    31    1
    21    13    14    1
    22    13    32    1
    23    13    33    1
    24    14    24    1
    25    14    15    2
    26    15    16    1
    27    16    17    1
    28    16    23    2
    29    17    18    1
    30    17    22    1
    31    17    19    1
    32    19    20    1
    33    19    34    1
    34    19    35    1
    35    20    21    1
    36    20    36    1
    37    20    37    1
    38    21    22    1
    39    21    38    1
    40    21    39    1
    41    23    24    1
    42    24    40    1
@<TRIPOS>SUBSTRUCTURE
     1 ZINC000655235556        1 TEMP              0 ****  ****    0 ROOT


##########                                Name:    ZINC000185180600
##########                DOCK_Rotatable_Bonds:                   7
##########                         Heavy_Atoms:                  26
##########                    Molecular_Weight:             395.953
##########                DOCK_Rotatable_Bonds:                   7
##########                       Formal_Charge:          0.00999977
##########                     HBond_Acceptors:                   7
##########                        HBond_Donors:                   0
##########                         Heavy_Atoms:                  26
##########                          Grid_Score:          -35.445446
##########                     Grid_vdw_energy:          -34.337070
##########                      Grid_es_energy:           -1.108374
##########           Internal_energy_repulsive:           20.313540

@<TRIPOS>MOLECULE
ZINC000185180600
 52 53 1 0 0
SMALL
USER_CHARGES


@<TRIPOS>ATOM
      1 C1        -13.0361    2.3440   50.6425 C.3     1  ZINC000185180600   -0.1500
      2 C2        -13.3451    0.9990   51.3030 C.3     1  ZINC000185180600   -0.0900
      3 C3        -14.0212    1.2379   52.6545 C.3     1  ZINC000185180600   -0.1500
      4 C4        -14.2797    0.1905   50.4010 C.3     1  ZINC000185180600   -0.1300
      5 C5        -13.7531   -1.2401   50.2726 C.3     1  ZINC000185180600    0.1300
      6 H6        -12.6688   -1.2198   50.1636 H       1  ZINC000185180600    0.1100
      7 C7        -14.3768   -1.9049   49.0437 C.3     1  ZINC000185180600   -0.1600
      8 N8        -14.1090   -2.0011   51.4728 N.am    1  ZINC000185180600   -0.6000
      9 C9        -15.4801   -2.4845   51.6539 C.3     1  ZINC000185180600    0.0700
     10 C10       -13.1752   -2.2564   52.4105 C.2     1  ZINC000185180600    0.5400
     11 O11       -12.0405   -1.8550   52.2613 O.2     1  ZINC000185180600   -0.5300
     12 C12       -13.5409   -3.0407   53.6443 C.3     1  ZINC000185180600   -0.5000
     13 S13       -12.2397   -2.8448   54.8930 S.o     1  ZINC000185180600    1.3200
     14 O14       -11.0272   -3.4024   54.4051 O.2     1  ZINC000185180600   -0.8000
     15 C15       -12.8502   -3.8439   56.2785 C.3     1  ZINC000185180600   -0.3900
     16 C16       -11.8630   -3.7825   57.4155 C.2     1  ZINC000185180600    0.1000
     17 N17       -11.7688   -2.8211   58.2985 N.2     1  ZINC000185180600   -0.2800
     18 N18       -10.7308   -3.1395   59.1837 N.pl3   1  ZINC000185180600   -0.3200
     19 C19       -10.3098   -2.3656   60.2745 C.ar    1  ZINC000185180600    0.1700
     20 C20        -9.1056   -2.6488   60.9045 C.ar    1  ZINC000185180600   -0.1300
     21 C21        -8.6931   -1.8852   61.9788 C.ar    1  ZINC000185180600   -0.0800
     22 C22        -9.4795   -0.8386   62.4276 C.ar    1  ZINC000185180600   -0.0500
     23 Cl23       -8.9583    0.1196   63.7782 Cl      1  ZINC000185180600   -0.0600
     24 C24       -10.6803   -0.5543   61.8012 C.ar    1  ZINC000185180600   -0.0800
     25 C25       -11.0940   -1.3113   60.7227 C.ar    1  ZINC000185180600   -0.1100
     26 C26       -10.2066   -4.3253   58.7999 C.2     1  ZINC000185180600    0.0600
     27 C27       -10.8934   -4.7465   57.7125 C.2     1  ZINC000185180600   -0.2500
     28 H28       -12.3702    2.9201   51.2851 H       1  ZINC000185180600    0.0500
     29 H29       -12.5544    2.1739   49.6797 H       1  ZINC000185180600    0.0600
     30 H30       -13.9636    2.8965   50.4921 H       1  ZINC000185180600    0.0500
     31 H31       -12.4176    0.4465   51.4535 H       1  ZINC000185180600    0.0700
     32 H32       -13.3249    1.7413   53.3253 H       1  ZINC000185180600    0.0500
     33 H33       -14.9047    1.8608   52.5138 H       1  ZINC000185180600    0.0500
     34 H34       -14.3158    0.2820   53.0874 H       1  ZINC000185180600    0.0500
     35 H35       -15.2788    0.1723   50.8364 H       1  ZINC000185180600    0.0700
     36 H36       -14.3217    0.6521   49.4144 H       1  ZINC000185180600    0.0800
     37 H37       -15.4612   -1.9252   49.1528 H       1  ZINC000185180600    0.0600
     38 H38       -14.1120   -1.3387   48.1508 H       1  ZINC000185180600    0.0700
     39 H39       -14.0016   -2.9242   48.9523 H       1  ZINC000185180600    0.0600
     40 H40       -15.5754   -3.4786   51.2171 H       1  ZINC000185180600    0.0600
     41 H41       -15.7112   -2.5316   52.7180 H       1  ZINC000185180600    0.0700
     42 H42       -16.1736   -1.8032   51.1611 H       1  ZINC000185180600    0.0800
     43 H43       -14.4857   -2.6711   54.0429 H       1  ZINC000185180600    0.1500
     44 H44       -13.6424   -4.0952   53.3876 H       1  ZINC000185180600    0.1200
     45 H45       -13.8123   -3.4543   56.6113 H       1  ZINC000185180600    0.1400
     46 H46       -12.9690   -4.8784   55.9560 H       1  ZINC000185180600    0.1000
     47 H47        -8.4919   -3.4660   60.5550 H       1  ZINC000185180600    0.1400
     48 H48        -7.7564   -2.1052   62.4692 H       1  ZINC000185180600    0.1500
     49 H49       -11.2925    0.2627   62.1536 H       1  ZINC000185180600    0.1400
     50 H50       -12.0313   -1.0890   60.2343 H       1  ZINC000185180600    0.1500
     51 H51        -9.3896   -4.8454   59.2780 H       1  ZINC000185180600    0.1800
     52 H52       -10.7188   -5.6614   57.1659 H       1  ZINC000185180600    0.1700
@<TRIPOS>BOND
     1     1     2    1
     2     1    28    1
     3     1    29    1
     4     1    30    1
     5     2     3    1
     6     2     4    1
     7     2    31    1
     8     3    32    1
     9     3    33    1
    10     3    34    1
    11     4     5    1
    12     4    35    1
    13     4    36    1
    14     5     6    1
    15     5     7    1
    16     5     8    1
    17     7    37    1
    18     7    38    1
    19     7    39    1
    20     8     9    1
    21     8    10   am
    22     9    40    1
    23     9    41    1
    24     9    42    1
    25    10    11    2
    26    10    12    1
    27    12    13    1
    28    12    43    1
    29    12    44    1
    30    13    14    2
    31    13    15    1
    32    15    16    1
    33    15    45    1
    34    15    46    1
    35    16    27    1
    36    16    17    2
    37    17    18    1
    38    18    19    1
    39    18    26    1
    40    19    25   ar
    41    19    20   ar
    42    20    21   ar
    43    20    47    1
    44    21    22   ar
    45    21    48    1
    46    22    23    1
    47    22    24   ar
    48    24    25   ar
    49    24    49    1
    50    25    50    1
    51    26    27    2
    52    26    51    1
    53    27    52    1
@<TRIPOS>SUBSTRUCTURE
     1 ZINC000185180600        1 TEMP              0 ****  ****    0 ROOT


##########                                Name:    ZINC000762020937
##########                DOCK_Rotatable_Bonds:                  10
##########                         Heavy_Atoms:                  28
##########                    Molecular_Weight:             391.467
##########                DOCK_Rotatable_Bonds:                  10
##########                       Formal_Charge:         -1.8999e-07
##########                     HBond_Acceptors:                   8
##########                        HBond_Donors:                   1
##########                         Heavy_Atoms:                  28
##########                          Grid_Score:          -35.430138
##########                     Grid_vdw_energy:          -36.336803
##########                      Grid_es_energy:            0.906665
##########           Internal_energy_repulsive:           42.358299

@<TRIPOS>MOLECULE
ZINC000762020937
 57 58 1 0 0
SMALL
USER_CHARGES


@<TRIPOS>ATOM
      1 C1        -13.9111   -5.1005   55.5317 C.3     1  ZINC000762020937    0.0200
      2 O2        -13.9794   -5.1094   56.9591 O.3     1  ZINC000762020937   -0.3000
      3 C3        -12.9219   -4.5806   57.6311 C.ar    1  ZINC000762020937    0.1100
      4 C4        -11.6878   -5.2082   57.5876 C.ar    1  ZINC000762020937   -0.1700
      5 C5        -10.6134   -4.6689   58.2712 C.ar    1  ZINC000762020937   -0.1000
      6 C6        -10.7677   -3.5042   58.9989 C.ar    1  ZINC000762020937   -0.1000
      7 C7         -9.5936   -2.9210   59.7424 C.3     1  ZINC000762020937    0.0200
      8 C8         -9.5677   -1.4269   59.5477 C.2     1  ZINC000762020937    0.1900
      9 N9         -9.1319   -0.7845   58.4908 N.2     1  ZINC000762020937   -0.4700
     10 C10        -9.3029    0.5210   58.7647 C.2     1  ZINC000762020937    0.1600
     11 C11        -8.9544    1.6751   57.8605 C.3     1  ZINC000762020937    0.2600
     12 H12        -8.9057    2.5935   58.4457 H       1  ZINC000762020937    0.1200
     13 N13        -7.6545    1.4275   57.2316 N.am    1  ZINC000762020937   -0.7100
     14 C14        -6.7125    2.3915   57.2290 C.2     1  ZINC000762020937    0.6600
     15 O15        -6.9409    3.4655   57.7495 O.2     1  ZINC000762020937   -0.5600
     16 O16        -5.5186    2.1645   56.6497 O.3     1  ZINC000762020937   -0.3600
     17 C17        -4.5563    3.2515   56.6750 C.3     1  ZINC000762020937    0.1400
     18 C18        -4.2451    3.6236   58.1261 C.3     1  ZINC000762020937   -0.1800
     19 C19        -3.2697    2.8102   55.9744 C.3     1  ZINC000762020937   -0.1400
     20 C20        -5.1402    4.4665   55.9511 C.3     1  ZINC000762020937   -0.1800
     21 C21       -10.0260    1.8165   56.7777 C.3     1  ZINC000762020937   -0.1000
     22 C22       -10.0314    3.2526   56.2500 C.3     1  ZINC000762020937   -0.1400
     23 C23        -9.7214    0.8523   55.6295 C.3     1  ZINC000762020937   -0.1400
     24 N24        -9.8243    0.6046   59.9520 N.2     1  ZINC000762020937   -0.3700
     25 O25        -9.9896   -0.5036   60.4168 O.3     1  ZINC000762020937    0.0900
     26 C26       -11.9969   -2.8724   59.0461 C.ar    1  ZINC000762020937   -0.1500
     27 C27       -13.0759   -3.4044   58.3595 C.ar    1  ZINC000762020937    0.1000
     28 O28       -14.2854   -2.7845   58.4049 O.3     1  ZINC000762020937   -0.3100
     29 C29       -15.1511   -3.1295   59.4882 C.3     1  ZINC000762020937    0.0200
     30 H30       -13.8237   -4.0730   55.1785 H       1  ZINC000762020937    0.0600
     31 H31       -13.0418   -5.6718   55.2060 H       1  ZINC000762020937    0.0600
     32 H32       -14.8156   -5.5500   55.1219 H       1  ZINC000762020937    0.1000
     33 H33       -11.5647   -6.1188   57.0201 H       1  ZINC000762020937    0.1400
     34 H34        -9.6517   -5.1592   58.2364 H       1  ZINC000762020937    0.1300
     35 H35        -9.6873   -3.1476   60.8045 H       1  ZINC000762020937    0.1200
     36 H36        -8.6695   -3.3535   59.3587 H       1  ZINC000762020937    0.1200
     37 H37        -7.4717    0.5697   56.8172 H       1  ZINC000762020937    0.4100
     38 H38        -3.8291    2.7580   58.6419 H       1  ZINC000762020937    0.0600
     39 H39        -3.5227    4.4396   58.1450 H       1  ZINC000762020937    0.0700
     40 H40        -5.1617    3.9380   58.6252 H       1  ZINC000762020937    0.0900
     41 H41        -3.4915    2.5452   54.9406 H       1  ZINC000762020937    0.0700
     42 H42        -2.5473    3.6262   55.9935 H       1  ZINC000762020937    0.0800
     43 H43        -2.8538    1.9447   56.4902 H       1  ZINC000762020937    0.0700
     44 H44        -6.0568    4.7809   56.4501 H       1  ZINC000762020937    0.0900
     45 H45        -4.4179    5.2825   55.9700 H       1  ZINC000762020937    0.0700
     46 H46        -5.3619    4.2014   54.9173 H       1  ZINC000762020937    0.0600
     47 H47       -11.0028    1.5811   57.2004 H       1  ZINC000762020937    0.0800
     48 H48        -9.0546    3.4880   55.8273 H       1  ZINC000762020937    0.0600
     49 H49       -10.7949    3.3533   55.4786 H       1  ZINC000762020937    0.0600
     50 H50       -10.2484    3.9394   57.0679 H       1  ZINC000762020937    0.0500
     51 H51        -9.7175   -0.1708   56.0056 H       1  ZINC000762020937    0.0500
     52 H52       -10.4849    0.9530   54.8582 H       1  ZINC000762020937    0.0600
     53 H53        -8.7446    1.0877   55.2069 H       1  ZINC000762020937    0.0700
     54 H54       -12.1147   -1.9624   59.6156 H       1  ZINC000762020937    0.1400
     55 H55       -14.6635   -2.8902   60.4333 H       1  ZINC000762020937    0.0600
     56 H56       -16.0798   -2.5651   59.4052 H       1  ZINC000762020937    0.1000
     57 H57       -15.3702   -4.1967   59.4525 H       1  ZINC000762020937    0.0600
@<TRIPOS>BOND
     1     1     2    1
     2     1    30    1
     3     1    31    1
     4     1    32    1
     5     2     3    1
     6     3    27   ar
     7     3     4   ar
     8     4     5   ar
     9     4    33    1
    10     5     6   ar
    11     5    34    1
    12     6     7    1
    13     6    26   ar
    14     7     8    1
    15     7    35    1
    16     7    36    1
    17     8    25    1
    18     8     9    2
    19     9    10    1
    20    10    11    1
    21    10    24    2
    22    11    12    1
    23    11    13    1
    24    11    21    1
    25    13    14   am
    26    13    37    1
    27    14    15    2
    28    14    16    1
    29    16    17    1
    30    17    18    1
    31    17    19    1
    32    17    20    1
    33    18    38    1
    34    18    39    1
    35    18    40    1
    36    19    41    1
    37    19    42    1
    38    19    43    1
    39    20    44    1
    40    20    45    1
    41    20    46    1
    42    21    22    1
    43    21    23    1
    44    21    47    1
    45    22    48    1
    46    22    49    1
    47    22    50    1
    48    23    51    1
    49    23    52    1
    50    23    53    1
    51    24    25    1
    52    26    27   ar
    53    26    54    1
    54    27    28    1
    55    28    29    1
    56    29    55    1
    57    29    56    1
    58    29    57    1
@<TRIPOS>SUBSTRUCTURE
     1 ZINC000762020937        1 TEMP              0 ****  ****    0 ROOT


##########                                Name:    ZINC000637608314
##########                DOCK_Rotatable_Bonds:                   9
##########                         Heavy_Atoms:                  28
##########                    Molecular_Weight:             387.479
##########                DOCK_Rotatable_Bonds:                   9
##########                       Formal_Charge:           0.0499991
##########                     HBond_Acceptors:                   7
##########                        HBond_Donors:                   2
##########                         Heavy_Atoms:                  28
##########                          Grid_Score:          -35.420948
##########                     Grid_vdw_energy:          -34.340290
##########                      Grid_es_energy:           -1.080657
##########           Internal_energy_repulsive:           19.761688

@<TRIPOS>MOLECULE
ZINC000637608314
 57 59 1 0 0
SMALL
USER_CHARGES


@<TRIPOS>ATOM
      1 C1        -11.3953   -1.1744   61.2573 C.3     1  ZINC000637608314   -0.1400
      2 C2        -10.3338   -1.6329   60.2552 C.3     1  ZINC000637608314   -0.0400
      3 C3         -9.5693   -0.4163   59.7296 C.3     1  ZINC000637608314   -0.1500
      4 C4         -9.3589   -2.5882   60.9465 C.3     1  ZINC000637608314   -0.1500
      5 C5        -11.0015   -2.3419   59.1052 C.2     1  ZINC000637608314    0.1900
      6 C6        -11.9446   -1.6982   58.3785 C.2     1  ZINC000637608314   -0.2400
      7 C7        -12.5697   -2.3518   57.3073 C.2     1  ZINC000637608314    0.0200
      8 C8        -12.2159   -3.6354   57.0113 C.2     1  ZINC000637608314   -0.2400
      9 C9        -12.8718   -4.3609   55.8648 C.3     1  ZINC000637608314    0.2100
     10 N10       -12.3765   -3.8195   54.5969 N.am    1  ZINC000637608314   -0.7300
     11 C11       -13.2326   -3.2440   53.7295 C.2     1  ZINC000637608314    0.7100
     12 O12       -14.4163   -3.1756   53.9987 O.2     1  ZINC000637608314   -0.5900
     13 N13       -12.7766   -2.7446   52.5637 N.am    1  ZINC000637608314   -0.6200
     14 C14       -11.3507   -2.8287   52.2385 C.3     1  ZINC000637608314    0.2000
     15 C15       -10.6258   -1.6584   52.8516 C.2     1  ZINC000637608314   -0.0400
     16 C16       -10.9629   -1.0358   53.9954 C.2     1  ZINC000637608314   -0.1900
     17 C17       -10.0186   -0.0022   54.1928 C.2     1  ZINC000637608314   -0.2200
     18 C18        -9.1608   -0.0551   53.1579 C.2     1  ZINC000637608314   -0.0300
     19 O19        -9.5302   -1.0638   52.3518 O.3     1  ZINC000637608314   -0.1700
     20 C20       -13.7070   -2.1175   51.6217 C.3     1  ZINC000637608314    0.1300
     21 C21       -13.9236   -0.6552   52.0159 C.3     1  ZINC000637608314    0.0700
     22 H22       -14.0422   -0.5773   53.0966 H       1  ZINC000637608314    0.0900
     23 C23       -15.1806   -0.1031   51.3099 C.3     1  ZINC000637608314   -0.1500
     24 C24       -14.7416    1.3387   50.9350 C.3     1  ZINC000637608314   -0.1600
     25 C25       -13.2366    1.1201   50.6386 C.3     1  ZINC000637608314    0.0500
     26 O26       -12.8053    0.1332   51.5918 O.3     1  ZINC000637608314   -0.3800
     27 C27       -11.2328   -4.2740   57.7864 C.2     1  ZINC000637608314    0.5300
     28 O28       -10.9063   -5.4224   57.5321 O.2     1  ZINC000637608314   -0.5400
     29 N29       -10.6466   -3.6177   58.8056 N.am    1  ZINC000637608314   -0.6000
     30 H30       -12.0898   -0.4938   60.7648 H       1  ZINC000637608314    0.0700
     31 H31       -11.9398   -2.0411   61.6317 H       1  ZINC000637608314    0.0700
     32 H32       -10.9123   -0.6616   62.0890 H       1  ZINC000637608314    0.0700
     33 H33        -9.0863    0.0965   60.5614 H       1  ZINC000637608314    0.0700
     34 H34        -8.8130   -0.7429   59.0158 H       1  ZINC000637608314    0.0600
     35 H35       -10.2638    0.2644   59.2372 H       1  ZINC000637608314    0.0700
     36 H36        -9.9035   -3.4550   61.3209 H       1  ZINC000637608314    0.0700
     37 H37        -8.6027   -2.9149   60.2326 H       1  ZINC000637608314    0.0600
     38 H38        -8.8759   -2.0754   61.7783 H       1  ZINC000637608314    0.0700
     39 H39       -12.2156   -0.6819   58.6239 H       1  ZINC000637608314    0.1500
     40 H40       -13.3234   -1.8446   56.7232 H       1  ZINC000637608314    0.1400
     41 H41       -12.6346   -5.4231   55.9238 H       1  ZINC000637608314    0.0800
     42 H42       -13.9521   -4.2262   55.9201 H       1  ZINC000637608314    0.0800
     43 H43       -11.4323   -3.8752   54.3816 H       1  ZINC000637608314    0.4000
     44 H44       -10.9416   -3.7579   52.6354 H       1  ZINC000637608314    0.1200
     45 H45       -11.2229   -2.8087   51.1563 H       1  ZINC000637608314    0.0900
     46 H46       -11.7955   -1.2785   54.6390 H       1  ZINC000637608314    0.1500
     47 H47        -9.9914    0.6960   55.0163 H       1  ZINC000637608314    0.1500
     48 H48        -8.3162    0.6000   53.0036 H       1  ZINC000637608314    0.2000
     49 H49       -13.2916   -2.1647   50.6150 H       1  ZINC000637608314    0.0800
     50 H50       -14.6602   -2.6456   51.6465 H       1  ZINC000637608314    0.1000
     51 H51       -15.4101   -0.6836   50.4163 H       1  ZINC000637608314    0.0800
     52 H52       -16.0315   -0.0848   51.9909 H       1  ZINC000637608314    0.0900
     53 H53       -15.2693    1.6921   50.0490 H       1  ZINC000637608314    0.0800
     54 H54       -14.8819    2.0223   51.7722 H       1  ZINC000637608314    0.0800
     55 H55       -13.1010    0.7502   49.6223 H       1  ZINC000637608314    0.0600
     56 H56       -12.6842    2.0490   50.7808 H       1  ZINC000637608314    0.0800
     57 H57        -9.9685   -4.0639   59.3365 H       1  ZINC000637608314    0.4100
@<TRIPOS>BOND
     1     1     2    1
     2     1    30    1
     3     1    31    1
     4     1    32    1
     5     2     3    1
     6     2     4    1
     7     2     5    1
     8     3    33    1
     9     3    34    1
    10     3    35    1
    11     4    36    1
    12     4    37    1
    13     4    38    1
    14     5    29    1
    15     5     6    2
    16     6     7    1
    17     6    39    1
    18     7     8    2
    19     7    40    1
    20     8     9    1
    21     8    27    1
    22     9    10    1
    23     9    41    1
    24     9    42    1
    25    10    11   am
    26    10    43    1
    27    11    12    2
    28    11    13   am
    29    13    14    1
    30    13    20    1
    31    14    15    1
    32    14    44    1
    33    14    45    1
    34    15    19    1
    35    15    16    2
    36    16    17    1
    37    16    46    1
    38    17    18    2
    39    17    47    1
    40    18    19    1
    41    18    48    1
    42    20    21    1
    43    20    49    1
    44    20    50    1
    45    21    22    1
    46    21    26    1
    47    21    23    1
    48    23    24    1
    49    23    51    1
    50    23    52    1
    51    24    25    1
    52    24    53    1
    53    24    54    1
    54    25    26    1
    55    25    55    1
    56    25    56    1
    57    27    28    2
    58    27    29   am
    59    29    57    1
@<TRIPOS>SUBSTRUCTURE
     1 ZINC000637608314        1 TEMP              0 ****  ****    0 ROOT


##########                                Name:    ZINC001289410668
##########                DOCK_Rotatable_Bonds:                  11
##########                         Heavy_Atoms:                  26
##########                    Molecular_Weight:             362.515
##########                DOCK_Rotatable_Bonds:                  11
##########                       Formal_Charge:          -0.0400008
##########                     HBond_Acceptors:                   6
##########                        HBond_Donors:                   1
##########                         Heavy_Atoms:                  26
##########                          Grid_Score:          -35.410313
##########                     Grid_vdw_energy:          -35.051502
##########                      Grid_es_energy:           -0.358811
##########           Internal_energy_repulsive:           13.540657

@<TRIPOS>MOLECULE
ZINC001289410668
 60 61 1 0 0
SMALL
USER_CHARGES


@<TRIPOS>ATOM
      1 C1        -10.1347   -2.1703   58.1391 C.3     1  ZINC001289410668   -0.1500
      2 C2        -11.3603   -3.0246   57.8088 C.3     1  ZINC001289410668   -0.1300
      3 C3        -11.4740   -3.1882   56.2918 C.3     1  ZINC001289410668   -0.1200
      4 C4        -12.6445   -4.1180   55.9655 C.3     1  ZINC001289410668   -0.1200
      5 C5        -12.7133   -4.3399   54.4533 C.3     1  ZINC001289410668   -0.1100
      6 C6        -13.5078   -3.2036   53.8066 C.3     1  ZINC001289410668   -0.1400
      7 C7        -12.5814   -2.3501   52.9794 C.2     1  ZINC001289410668    0.5100
      8 O8        -11.9267   -2.8518   52.0903 O.2     1  ZINC001289410668   -0.5300
      9 N9        -12.4803   -1.0293   53.2278 N.am    1  ZINC001289410668   -0.7200
     10 C10       -11.5783   -0.1998   52.4249 C.3     1  ZINC001289410668    0.1400
     11 H11       -11.8113   -0.2875   51.3636 H       1  ZINC001289410668    0.1100
     12 C12       -10.0978   -0.5628   52.7002 C.3     1  ZINC001289410668    0.0800
     13 N13        -9.3410    0.6561   52.3610 N.am    1  ZINC001289410668   -0.6200
     14 C14        -8.0425    0.7004   52.0026 C.2     1  ZINC001289410668    0.5100
     15 O15        -7.3954   -0.3234   51.9403 O.2     1  ZINC001289410668   -0.5100
     16 C16        -7.3947    2.0222   51.6794 C.3     1  ZINC001289410668    0.0900
     17 N17        -6.0068    1.7980   51.2675 N.pl3   1  ZINC001289410668   -0.4500
     18 C18        -5.5884    1.0826   50.1781 C.2     1  ZINC001289410668   -0.0500
     19 C19        -4.2425    1.1312   50.1737 C.2     1  ZINC001289410668   -0.0200
     20 N20        -3.8500    1.8565   51.2315 N.2     1  ZINC001289410668   -0.4800
     21 C21        -4.9015    2.2634   51.8884 C.2     1  ZINC001289410668    0.2300
     22 C22        -4.8850    3.1053   53.1382 C.3     1  ZINC001289410668   -0.0100
     23 C23        -3.5210    2.9794   53.8200 C.3     1  ZINC001289410668   -0.1400
     24 C24        -5.1383    4.5687   52.7707 C.3     1  ZINC001289410668   -0.1400
     25 C25       -10.2377    1.8155   52.4777 C.3     1  ZINC001289410668    0.1100
     26 C26       -11.6277    1.2812   52.8846 C.3     1  ZINC001289410668   -0.1100
     27 H27       -11.7644    1.3449   53.9642 H       1  ZINC001289410668    0.0900
     28 C28       -12.7355    2.0434   52.1548 C.3     1  ZINC001289410668   -0.1400
     29 H29       -10.0537   -2.0536   59.2198 H       1  ZINC001289410668    0.0500
     30 H30        -9.2380   -2.6589   57.7581 H       1  ZINC001289410668    0.0500
     31 H31       -10.2394   -1.1898   57.6746 H       1  ZINC001289410668    0.0500
     32 H32       -11.2556   -4.0051   58.2732 H       1  ZINC001289410668    0.0600
     33 H33       -12.2571   -2.5360   58.1897 H       1  ZINC001289410668    0.0600
     34 H34       -11.6447   -2.2144   55.8330 H       1  ZINC001289410668    0.0600
     35 H35       -10.5504   -3.6165   55.9023 H       1  ZINC001289410668    0.0600
     36 H36       -12.4991   -5.0749   56.4668 H       1  ZINC001289410668    0.0600
     37 H37       -13.5747   -3.6655   56.3090 H       1  ZINC001289410668    0.0600
     38 H38       -11.7038   -4.3572   54.0423 H       1  ZINC001289410668    0.0700
     39 H39       -13.2055   -5.2904   54.2475 H       1  ZINC001289410668    0.0700
     40 H40       -14.2848   -3.6219   53.1667 H       1  ZINC001289410668    0.1000
     41 H41       -13.9671   -2.5931   54.5841 H       1  ZINC001289410668    0.1000
     42 H42       -13.0048   -0.6278   53.9381 H       1  ZINC001289410668    0.4000
     43 H43        -9.9583   -0.8157   53.7512 H       1  ZINC001289410668    0.0800
     44 H44        -9.7859   -1.3919   52.0650 H       1  ZINC001289410668    0.0800
     45 H45        -7.9406    2.5057   50.8691 H       1  ZINC001289410668    0.1200
     46 H46        -7.4131    2.6612   52.5621 H       1  ZINC001289410668    0.1200
     47 H47        -6.2167    0.5762   49.4603 H       1  ZINC001289410668    0.1700
     48 H48        -3.5931    0.6674   49.4459 H       1  ZINC001289410668    0.1700
     49 H49        -5.6642    2.7613   53.8184 H       1  ZINC001289410668    0.0700
     50 H50        -2.7419    3.3233   53.1398 H       1  ZINC001289410668    0.0700
     51 H51        -3.5091    3.5883   54.7239 H       1  ZINC001289410668    0.0600
     52 H52        -3.3406    1.9368   54.0817 H       1  ZINC001289410668    0.0500
     53 H53        -4.3590    4.9127   52.0906 H       1  ZINC001289410668    0.0700
     54 H54        -6.1100    4.6584   52.2850 H       1  ZINC001289410668    0.0600
     55 H55        -5.1264    5.1777   53.6746 H       1  ZINC001289410668    0.0600
     56 H56        -9.8642    2.4976   53.2413 H       1  ZINC001289410668    0.0800
     57 H57       -10.3051    2.3299   51.5191 H       1  ZINC001289410668    0.0800
     58 H58       -12.5976    1.9424   51.0783 H       1  ZINC001289410668    0.0600
     59 H59       -13.7052    1.6334   52.4369 H       1  ZINC001289410668    0.0600
     60 H60       -12.6929    3.0975   52.4293 H       1  ZINC001289410668    0.0700
@<TRIPOS>BOND
     1     1     2    1
     2     1    29    1
     3     1    30    1
     4     1    31    1
     5     2     3    1
     6     2    32    1
     7     2    33    1
     8     3     4    1
     9     3    34    1
    10     3    35    1
    11     4     5    1
    12     4    36    1
    13     4    37    1
    14     5     6    1
    15     5    38    1
    16     5    39    1
    17     6     7    1
    18     6    40    1
    19     6    41    1
    20     7     8    2
    21     7     9   am
    22     9    10    1
    23     9    42    1
    24    10    11    1
    25    10    26    1
    26    10    12    1
    27    12    13    1
    28    12    43    1
    29    12    44    1
    30    13    14   am
    31    13    25    1
    32    14    15    2
    33    14    16    1
    34    16    17    1
    35    16    45    1
    36    16    46    1
    37    17    21    1
    38    17    18    1
    39    18    19    2
    40    18    47    1
    41    19    20    1
    42    19    48    1
    43    20    21    2
    44    21    22    1
    45    22    23    1
    46    22    24    1
    47    22    49    1
    48    23    50    1
    49    23    51    1
    50    23    52    1
    51    24    53    1
    52    24    54    1
    53    24    55    1
    54    25    26    1
    55    25    56    1
    56    25    57    1
    57    26    27    1
    58    26    28    1
    59    28    58    1
    60    28    59    1
    61    28    60    1
@<TRIPOS>SUBSTRUCTURE
     1 ZINC001289410668        1 TEMP              0 ****  ****    0 ROOT


##########                                Name:    ZINC000523863446
##########                DOCK_Rotatable_Bonds:                  10
##########                         Heavy_Atoms:                  29
##########                    Molecular_Weight:             396.533
##########                DOCK_Rotatable_Bonds:                  10
##########                       Formal_Charge:          -0.0200008
##########                     HBond_Acceptors:                   6
##########                        HBond_Donors:                   1
##########                         Heavy_Atoms:                  29
##########                          Grid_Score:          -35.407341
##########                     Grid_vdw_energy:          -34.964157
##########                      Grid_es_energy:           -0.443183
##########           Internal_energy_repulsive:           19.105181

@<TRIPOS>MOLECULE
ZINC000523863446
 61 63 1 0 0
SMALL
USER_CHARGES


@<TRIPOS>ATOM
      1 C1         -9.0569    3.6000   51.5957 C.3     1  ZINC000523863446   -0.1700
      2 C2         -7.9161    3.0406   52.4480 C.3     1  ZINC000523863446    0.1500
      3 H3         -7.0386    3.6789   52.3447 H       1  ZINC000523863446    0.1300
      4 C4         -8.3413    3.0014   53.8932 C.2     1  ZINC000523863446    0.5100
      5 O5         -9.5108    2.8516   54.1773 O.2     1  ZINC000523863446   -0.5100
      6 N6         -7.4220    3.1328   54.8699 N.am    1  ZINC000523863446   -0.6000
      7 C7         -6.0096    3.3156   54.5268 C.3     1  ZINC000523863446    0.0700
      8 C8         -7.8353    3.0929   56.2750 C.3     1  ZINC000523863446    0.1000
      9 C9         -8.2888    1.6993   56.6258 C.2     1  ZINC000523863446    0.5000
     10 O10        -7.9764    0.7641   55.9196 O.2     1  ZINC000523863446   -0.5200
     11 N11        -9.0418    1.4922   57.7242 N.am    1  ZINC000523863446   -0.7200
     12 C12        -9.4812    0.1371   58.0662 C.3     1  ZINC000523863446    0.1900
     13 H13        -8.7814   -0.5877   57.6502 H       1  ZINC000523863446    0.1000
     14 C14       -10.8753   -0.1087   57.4856 C.3     1  ZINC000523863446   -0.1200
     15 C15       -10.9334   -1.5102   56.8745 C.3     1  ZINC000523863446   -0.0900
     16 C16       -11.5890   -2.4724   57.8672 C.3     1  ZINC000523863446   -0.1200
     17 C17       -11.6473   -3.8740   57.2562 C.3     1  ZINC000523863446   -0.1200
     18 C18       -12.4687   -3.8342   55.9660 C.3     1  ZINC000523863446   -0.1200
     19 C19       -11.8131   -2.8719   54.9735 C.3     1  ZINC000523863446   -0.1200
     20 C20       -11.7550   -1.4704   55.5844 C.3     1  ZINC000523863446   -0.1100
     21 C21        -9.5278   -0.0126   59.5651 C.ar    1  ZINC000523863446   -0.0900
     22 C22        -9.0515   -1.1661   60.1597 C.ar    1  ZINC000523863446   -0.1100
     23 C23        -9.0942   -1.3033   61.5345 C.ar    1  ZINC000523863446   -0.1200
     24 C24        -9.6129   -0.2868   62.3148 C.ar    1  ZINC000523863446   -0.1200
     25 C25       -10.0883    0.8670   61.7203 C.ar    1  ZINC000523863446   -0.1200
     26 C26       -10.0416    1.0060   60.3457 C.ar    1  ZINC000523863446   -0.1000
     27 N27        -7.5895    1.6852   51.9980 N.pl3   1  ZINC000523863446   -0.3600
     28 C28        -8.2211    0.5517   52.3692 C.2     1  ZINC000523863446    0.0600
     29 C29        -7.6201   -0.4817   51.7352 C.2     1  ZINC000523863446   -0.2700
     30 C30        -6.5859    0.0379   50.9499 C.2     1  ZINC000523863446    0.0500
     31 N31        -6.5706    1.3374   51.1020 N.2     1  ZINC000523863446   -0.2900
     32 H32        -9.9344    2.9617   51.6990 H       1  ZINC000523863446    0.0700
     33 H33        -9.2998    4.6085   51.9305 H       1  ZINC000523863446    0.1000
     34 H34        -8.7493    3.6284   50.5504 H       1  ZINC000523863446    0.0800
     35 H35        -5.7936    4.3797   54.4310 H       1  ZINC000523863446    0.0700
     36 H36        -5.3866    2.8876   55.3122 H       1  ZINC000523863446    0.0800
     37 H37        -5.7976    2.8153   53.5819 H       1  ZINC000523863446    0.0800
     38 H38        -6.9937    3.3716   56.9093 H       1  ZINC000523863446    0.1100
     39 H39        -8.6562    3.7926   56.4322 H       1  ZINC000523863446    0.1100
     40 H40        -9.2927    2.2403   58.2883 H       1  ZINC000523863446    0.4000
     41 H41       -11.6188   -0.0268   58.2785 H       1  ZINC000523863446    0.0800
     42 H42       -11.0836    0.6328   56.7143 H       1  ZINC000523863446    0.0700
     43 H43        -9.9227   -1.8515   56.6513 H       1  ZINC000523863446    0.0700
     44 H44       -11.0039   -2.5008   58.7863 H       1  ZINC000523863446    0.0600
     45 H45       -12.5999   -2.1311   58.0904 H       1  ZINC000523863446    0.0600
     46 H46       -10.6364   -4.2153   57.0329 H       1  ZINC000523863446    0.0600
     47 H47       -12.1143   -4.5595   57.9633 H       1  ZINC000523863446    0.0600
     48 H48       -12.5102   -4.8326   55.5308 H       1  ZINC000523863446    0.0600
     49 H49       -13.4796   -3.4929   56.1892 H       1  ZINC000523863446    0.0600
     50 H50       -10.8023   -3.2132   54.7502 H       1  ZINC000523863446    0.0600
     51 H51       -12.3984   -2.8436   54.0543 H       1  ZINC000523863446    0.0600
     52 H52       -12.7657   -1.1292   55.8077 H       1  ZINC000523863446    0.0600
     53 H53       -11.2879   -0.7850   54.8773 H       1  ZINC000523863446    0.0600
     54 H54        -8.6463   -1.9601   59.5501 H       1  ZINC000523863446    0.1200
     55 H55        -8.7228   -2.2048   61.9990 H       1  ZINC000523863446    0.1200
     56 H56        -9.6469   -0.3944   63.3889 H       1  ZINC000523863446    0.1200
     57 H57       -10.4938    1.6609   62.3299 H       1  ZINC000523863446    0.1200
     58 H58       -10.4131    1.9075   59.8812 H       1  ZINC000523863446    0.1200
     59 H59        -9.0562    0.4820   53.0503 H       1  ZINC000523863446    0.1700
     60 H60        -7.8907   -1.5237   51.8210 H       1  ZINC000523863446    0.1500
     61 H61        -5.9185   -0.5342   50.3223 H       1  ZINC000523863446    0.1800
@<TRIPOS>BOND
     1     1     2    1
     2     1    32    1
     3     1    33    1
     4     1    34    1
     5     2     3    1
     6     2     4    1
     7     2    27    1
     8     4     5    2
     9     4     6   am
    10     6     7    1
    11     6     8    1
    12     7    35    1
    13     7    36    1
    14     7    37    1
    15     8     9    1
    16     8    38    1
    17     8    39    1
    18     9    10    2
    19     9    11   am
    20    11    12    1
    21    11    40    1
    22    12    13    1
    23    12    14    1
    24    12    21    1
    25    14    15    1
    26    14    41    1
    27    14    42    1
    28    15    20    1
    29    15    16    1
    30    15    43    1
    31    16    17    1
    32    16    44    1
    33    16    45    1
    34    17    18    1
    35    17    46    1
    36    17    47    1
    37    18    19    1
    38    18    48    1
    39    18    49    1
    40    19    20    1
    41    19    50    1
    42    19    51    1
    43    20    52    1
    44    20    53    1
    45    21    26   ar
    46    21    22   ar
    47    22    23   ar
    48    22    54    1
    49    23    24   ar
    50    23    55    1
    51    24    25   ar
    52    24    56    1
    53    25    26   ar
    54    25    57    1
    55    26    58    1
    56    27    31    1
    57    27    28    1
    58    28    29    2
    59    28    59    1
    60    29    30    1
    61    29    60    1
    62    30    31    2
    63    30    61    1
@<TRIPOS>SUBSTRUCTURE
     1 ZINC000523863446        1 TEMP              0 ****  ****    0 ROOT


##########                                Name:    ZINC001127302705
##########                DOCK_Rotatable_Bonds:                   9
##########                         Heavy_Atoms:                  28
##########                    Molecular_Weight:             398.892
##########                DOCK_Rotatable_Bonds:                   9
##########                       Formal_Charge:          -0.0200002
##########                     HBond_Acceptors:                   7
##########                        HBond_Donors:                   1
##########                         Heavy_Atoms:                  28
##########                          Grid_Score:          -35.376251
##########                     Grid_vdw_energy:          -35.002068
##########                      Grid_es_energy:           -0.374183
##########           Internal_energy_repulsive:           30.620413

@<TRIPOS>MOLECULE
ZINC001127302705
 51 53 1 0 0
SMALL
USER_CHARGES


@<TRIPOS>ATOM
      1 C1        -11.4314   -4.0788   53.2400 C.3     1  ZINC001127302705   -0.1500
      2 C2        -12.8586   -4.0386   53.7902 C.3     1  ZINC001127302705   -0.1400
      3 C3        -12.9746   -2.9183   54.8257 C.3     1  ZINC001127302705    0.1800
      4 C4        -14.4485   -2.5614   55.0279 C.3     1  ZINC001127302705   -0.1600
      5 C5        -12.3765   -3.3872   56.1536 C.3     1  ZINC001127302705    0.0700
      6 O6        -11.3501   -2.4800   56.5603 O.3     1  ZINC001127302705   -0.2800
      7 C7        -10.5907   -2.8456   57.6239 C.ar    1  ZINC001127302705    0.3400
      8 N8        -10.6411   -4.0901   58.0676 N.ar    1  ZINC001127302705   -0.5300
      9 C9         -9.9192   -4.4878   59.0984 C.ar    1  ZINC001127302705    0.1400
     10 C10        -9.0793   -3.6109   59.7551 C.ar    1  ZINC001127302705   -0.2000
     11 C11        -8.9971   -2.2950   59.3207 C.ar    1  ZINC001127302705   -0.0300
     12 C12        -9.7626   -1.9096   58.2331 C.ar    1  ZINC001127302705   -0.1100
     13 Cl13       -9.6995   -0.2769   57.6468 Cl      1  ZINC001127302705   -0.0400
     14 N14       -12.2469   -1.7382   54.3521 N.am    1  ZINC001127302705   -0.7100
     15 C15       -12.5789   -1.1687   53.1764 C.2     1  ZINC001127302705    0.6200
     16 O16       -13.4832   -1.6334   52.5098 O.2     1  ZINC001127302705   -0.5200
     17 C17       -11.8442    0.0199   52.6981 C.2     1  ZINC001127302705   -0.0200
     18 N18       -10.7827    0.5642   53.2589 N.2     1  ZINC001127302705   -0.2500
     19 N19       -10.4002    1.5856   52.5801 N.pl3   1  ZINC001127302705   -0.2800
     20 C20        -9.2511    2.4308   52.9138 C.3     1  ZINC001127302705    0.1600
     21 C21        -8.0071    1.8584   52.2847 C.ar    1  ZINC001127302705   -0.1200
     22 C22        -6.9585    2.6921   51.9438 C.ar    1  ZINC001127302705   -0.1000
     23 C23        -5.8175    2.1670   51.3667 C.ar    1  ZINC001127302705   -0.1200
     24 C24        -5.7248    0.8081   51.1308 C.ar    1  ZINC001127302705   -0.1100
     25 C25        -6.7731   -0.0258   51.4725 C.ar    1  ZINC001127302705   -0.1200
     26 C26        -7.9124    0.4988   52.0536 C.ar    1  ZINC001127302705   -0.0800
     27 C27       -11.2096    1.7681   51.5147 C.2     1  ZINC001127302705   -0.0200
     28 C28       -12.1422    0.7873   51.5471 C.2     1  ZINC001127302705   -0.1800
     29 H29       -10.7327   -4.2642   54.0558 H       1  ZINC001127302705    0.0500
     30 H30       -11.3489   -4.8769   52.5023 H       1  ZINC001127302705    0.0600
     31 H31       -11.1962   -3.1239   52.7700 H       1  ZINC001127302705    0.0500
     32 H32       -13.5574   -3.8531   52.9744 H       1  ZINC001127302705    0.0900
     33 H33       -13.0938   -4.9935   54.2602 H       1  ZINC001127302705    0.0800
     34 H34       -14.9900   -3.4393   55.3803 H       1  ZINC001127302705    0.0700
     35 H35       -14.5312   -1.7632   55.7656 H       1  ZINC001127302705    0.0500
     36 H36       -14.8746   -2.2272   54.0818 H       1  ZINC001127302705    0.0800
     37 H37       -13.1574   -3.4167   56.9135 H       1  ZINC001127302705    0.0800
     38 H38       -11.9525   -4.3835   56.0295 H       1  ZINC001127302705    0.0700
     39 H39        -9.9866   -5.5126   59.4326 H       1  ZINC001127302705    0.1700
     40 H40        -8.4927   -3.9450   60.5981 H       1  ZINC001127302705    0.1500
     41 H41        -8.3478   -1.5889   59.8170 H       1  ZINC001127302705    0.1500
     42 H42       -11.5263   -1.3668   54.8844 H       1  ZINC001127302705    0.4100
     43 H43        -9.4192    3.4388   52.5348 H       1  ZINC001127302705    0.1000
     44 H44        -9.1278    2.4655   53.9963 H       1  ZINC001127302705    0.1100
     45 H45        -7.0308    3.7538   52.1282 H       1  ZINC001127302705    0.1200
     46 H46        -4.9984    2.8185   51.0998 H       1  ZINC001127302705    0.1300
     47 H47        -4.8336    0.3979   50.6793 H       1  ZINC001127302705    0.1200
     48 H48        -6.7008   -1.0874   51.2878 H       1  ZINC001127302705    0.1300
     49 H49        -8.7314   -0.1526   52.3204 H       1  ZINC001127302705    0.1300
     50 H50       -11.1257    2.5480   50.7724 H       1  ZINC001127302705    0.1800
     51 H51       -12.9484    0.6285   50.8463 H       1  ZINC001127302705    0.1600
@<TRIPOS>BOND
     1     1     2    1
     2     1    29    1
     3     1    30    1
     4     1    31    1
     5     2     3    1
     6     2    32    1
     7     2    33    1
     8     3     4    1
     9     3     5    1
    10     3    14    1
    11     4    34    1
    12     4    35    1
    13     4    36    1
    14     5     6    1
    15     5    37    1
    16     5    38    1
    17     6     7    1
    18     7    12   ar
    19     7     8   ar
    20     8     9   ar
    21     9    10   ar
    22     9    39    1
    23    10    11   ar
    24    10    40    1
    25    11    12   ar
    26    11    41    1
    27    12    13    1
    28    14    15   am
    29    14    42    1
    30    15    16    2
    31    15    17    1
    32    17    28    1
    33    17    18    2
    34    18    19    1
    35    19    20    1
    36    19    27    1
    37    20    21    1
    38    20    43    1
    39    20    44    1
    40    21    26   ar
    41    21    22   ar
    42    22    23   ar
    43    22    45    1
    44    23    24   ar
    45    23    46    1
    46    24    25   ar
    47    24    47    1
    48    25    26   ar
    49    25    48    1
    50    26    49    1
    51    27    28    2
    52    27    50    1
    53    28    51    1
@<TRIPOS>SUBSTRUCTURE
     1 ZINC001127302705        1 TEMP              0 ****  ****    0 ROOT


##########                                Name:    ZINC001327099466
##########                DOCK_Rotatable_Bonds:                   7
##########                         Heavy_Atoms:                  27
##########                    Molecular_Weight:             374.483
##########                DOCK_Rotatable_Bonds:                   7
##########                       Formal_Charge:           0.0199998
##########                     HBond_Acceptors:                   7
##########                        HBond_Donors:                   1
##########                         Heavy_Atoms:                  27
##########                          Grid_Score:          -35.362377
##########                     Grid_vdw_energy:          -33.041580
##########                      Grid_es_energy:           -2.320796
##########           Internal_energy_repulsive:           12.200167

@<TRIPOS>MOLECULE
ZINC001327099466
 57 60 1 0 0
SMALL
USER_CHARGES


@<TRIPOS>ATOM
      1 O1         -9.6500   -3.1290   57.9709 O.2     1  ZINC001327099466   -0.4800
      2 C2        -10.8276   -3.3262   58.1892 C.2     1  ZINC001327099466    0.5300
      3 N3        -11.3751   -2.9189   59.3515 N.am    1  ZINC001327099466   -0.6000
      4 C4        -10.5846   -2.2737   60.3089 C.2     1  ZINC001327099466    0.2900
      5 N5        -10.8220   -1.0962   60.8386 N.2     1  ZINC001327099466   -0.3100
      6 N6         -9.7974   -0.8132   61.7509 N.pl3   1  ZINC001327099466   -0.3500
      7 C7         -9.6784    0.4011   62.5618 C.3     1  ZINC001327099466    0.1700
      8 C8        -11.0734    0.9562   62.8564 C.3     1  ZINC001327099466   -0.1300
      9 C9        -10.9491    2.2244   63.7034 C.3     1  ZINC001327099466   -0.1200
     10 C10       -10.2442    1.8915   65.0198 C.3     1  ZINC001327099466   -0.1300
     11 C11        -8.8493    1.3362   64.7251 C.3     1  ZINC001327099466   -0.1200
     12 C12        -8.9735    0.0681   63.8783 C.3     1  ZINC001327099466   -0.1300
     13 C13        -8.9392   -1.8551   61.7526 C.2     1  ZINC001327099466    0.0700
     14 C14        -9.4013   -2.7750   60.8759 C.2     1  ZINC001327099466   -0.2700
     15 C15       -11.6714   -4.0149   57.1673 C.2     1  ZINC001327099466    0.5100
     16 O16       -11.8986   -5.2028   57.2685 O.2     1  ZINC001327099466   -0.5100
     17 N17       -12.1805   -3.3173   56.1326 N.am    1  ZINC001327099466   -0.5700
     18 C18       -13.0123   -3.9809   55.1194 C.3     1  ZINC001327099466    0.0400
     19 C19       -12.4263   -3.6918   53.7338 C.3     1  ZINC001327099466   -0.1300
     20 C20       -12.2941   -2.1787   53.5459 C.3     1  ZINC001327099466   -0.1200
     21 C21       -11.3409   -1.6132   54.6011 C.3     1  ZINC001327099466    0.0800
     22 H22       -10.3684   -2.0970   54.5094 H       1  ZINC001327099466    0.0700
     23 O23       -11.1935   -0.2053   54.4052 O.3     1  ZINC001327099466   -0.3500
     24 C24        -9.9114    0.1810   53.9063 C.3     1  ZINC001327099466    0.0600
     25 C25        -9.8786    1.6066   53.3305 C.3     1  ZINC001327099466   -0.1600
     26 C26        -9.5304    2.0871   54.7493 C.3     1  ZINC001327099466   -0.1400
     27 C27        -8.9518    0.6841   54.9975 C.3     1  ZINC001327099466   -0.1400
     28 C28       -11.9191   -1.8776   55.9995 C.3     1  ZINC001327099466    0.0900
     29 H29       -12.3170   -3.0731   59.5243 H       1  ZINC001327099466    0.4300
     30 H30        -9.0984    1.1462   62.0174 H       1  ZINC001327099466    0.1000
     31 H31       -11.5756    1.1935   61.9185 H       1  ZINC001327099466    0.0700
     32 H32       -11.6534    0.2111   63.4009 H       1  ZINC001327099466    0.0700
     33 H33       -10.3690    2.9694   63.1589 H       1  ZINC001327099466    0.0700
     34 H34       -11.9429    2.6199   63.9132 H       1  ZINC001327099466    0.0700
     35 H35       -10.1556    2.7948   65.6232 H       1  ZINC001327099466    0.0700
     36 H36       -10.8243    1.1463   65.5643 H       1  ZINC001327099466    0.0700
     37 H37        -8.2691    2.0814   64.1807 H       1  ZINC001327099466    0.0700
     38 H38        -8.3470    1.0990   65.6631 H       1  ZINC001327099466    0.0700
     39 H39        -9.5536   -0.6770   64.4227 H       1  ZINC001327099466    0.0700
     40 H40        -7.9797   -0.3275   63.6684 H       1  ZINC001327099466    0.0700
     41 H41        -8.0443   -1.9406   62.3511 H       1  ZINC001327099466    0.1800
     42 H42        -8.9395   -3.7243   60.6479 H       1  ZINC001327099466    0.1700
     43 H43       -13.0165   -5.0562   55.2973 H       1  ZINC001327099466    0.1600
     44 H44       -14.0305   -3.5956   55.1732 H       1  ZINC001327099466    0.0700
     45 H45       -11.4436   -4.1560   53.6504 H       1  ZINC001327099466    0.0700
     46 H46       -13.0870   -4.0973   52.9677 H       1  ZINC001327099466    0.0900
     47 H47       -11.9004   -1.9695   52.5513 H       1  ZINC001327099466    0.0800
     48 H48       -13.2734   -1.7124   53.6540 H       1  ZINC001327099466    0.0800
     49 H49        -9.4702   -0.5675   53.2480 H       1  ZINC001327099466    0.0700
     50 H50        -9.0794    1.7669   52.6069 H       1  ZINC001327099466    0.0900
     51 H51       -10.8481    1.9570   52.9765 H       1  ZINC001327099466    0.0700
     52 H52        -8.7812    2.8785   54.7707 H       1  ZINC001327099466    0.0700
     53 H53       -10.4042    2.3134   55.3603 H       1  ZINC001327099466    0.0800
     54 H54        -9.1732    0.2897   55.9894 H       1  ZINC001327099466    0.0800
     55 H55        -7.8993    0.5921   54.7296 H       1  ZINC001327099466    0.0900
     56 H56       -12.8472   -1.3194   56.1226 H       1  ZINC001327099466    0.0900
     57 H57       -11.2000   -1.5664   56.7572 H       1  ZINC001327099466    0.1000
@<TRIPOS>BOND
     1     1     2    2
     2     2     3   am
     3     2    15    1
     4     3     4    1
     5     3    29    1
     6     4    14    1
     7     4     5    2
     8     5     6    1
     9     6     7    1
    10     6    13    1
    11     7    12    1
    12     7     8    1
    13     7    30    1
    14     8     9    1
    15     8    31    1
    16     8    32    1
    17     9    10    1
    18     9    33    1
    19     9    34    1
    20    10    11    1
    21    10    35    1
    22    10    36    1
    23    11    12    1
    24    11    37    1
    25    11    38    1
    26    12    39    1
    27    12    40    1
    28    13    14    2
    29    13    41    1
    30    14    42    1
    31    15    16    2
    32    15    17   am
    33    17    28    1
    34    17    18    1
    35    18    19    1
    36    18    43    1
    37    18    44    1
    38    19    20    1
    39    19    45    1
    40    19    46    1
    41    20    21    1
    42    20    47    1
    43    20    48    1
    44    21    22    1
    45    21    23    1
    46    21    28    1
    47    23    24    1
    48    24    27    1
    49    24    25    1
    50    24    49    1
    51    25    26    1
    52    25    50    1
    53    25    51    1
    54    26    27    1
    55    26    52    1
    56    26    53    1
    57    27    54    1
    58    27    55    1
    59    28    56    1
    60    28    57    1
@<TRIPOS>SUBSTRUCTURE
     1 ZINC001327099466        1 TEMP              0 ****  ****    0 ROOT


##########                                Name:    ZINC000893400114
##########                DOCK_Rotatable_Bonds:                   6
##########                         Heavy_Atoms:                  27
##########                    Molecular_Weight:             381.472
##########                DOCK_Rotatable_Bonds:                   6
##########                       Formal_Charge:           0.0300001
##########                     HBond_Acceptors:                   8
##########                        HBond_Donors:                   1
##########                         Heavy_Atoms:                  27
##########                          Grid_Score:          -35.353096
##########                     Grid_vdw_energy:          -34.170887
##########                      Grid_es_energy:           -1.182209
##########           Internal_energy_repulsive:           83.394562

@<TRIPOS>MOLECULE
ZINC000893400114
 58 61 1 0 0
SMALL
USER_CHARGES


@<TRIPOS>ATOM
      1 O1        -10.9417   -2.4722   56.1280 O.2     1  ZINC000893400114   -0.5600
      2 C2        -11.3034   -3.4044   56.8197 C.2     1  ZINC000893400114    0.7100
      3 N3        -10.7667   -3.5840   58.0429 N.am    1  ZINC000893400114   -0.7300
      4 C4         -9.7432   -2.6593   58.5367 C.3     1  ZINC000893400114    0.1400
      5 H5         -9.1015   -2.3303   57.7193 H       1  ZINC000893400114    0.1200
      6 C6         -8.9025   -3.3269   59.6496 C.3     1  ZINC000893400114   -0.1400
      7 C7         -9.6417   -2.8625   60.9241 C.3     1  ZINC000893400114    0.1000
      8 N8        -10.3109   -1.6099   60.5541 N.am    1  ZINC000893400114   -0.6200
      9 C9        -10.8294   -0.6342   61.5163 C.3     1  ZINC000893400114    0.1600
     10 C10       -10.1355    0.7145   61.3028 C.3     1  ZINC000893400114   -0.1700
     11 C11       -10.7390    1.7470   62.2587 C.3     1  ZINC000893400114    0.0700
     12 O12       -12.1470    1.8380   62.0322 O.3     1  ZINC000893400114   -0.3800
     13 C13       -12.8552    0.6184   62.2625 C.3     1  ZINC000893400114    0.0700
     14 C14       -12.3367   -0.4594   61.3068 C.3     1  ZINC000893400114   -0.1700
     15 C15       -10.3868   -1.4708   59.2161 C.2     1  ZINC000893400114    0.5100
     16 O16       -10.8967   -0.5313   58.6431 O.2     1  ZINC000893400114   -0.4900
     17 N17       -12.2450   -4.2551   56.3655 N.am    1  ZINC000893400114   -0.6300
     18 C18       -12.7029   -5.3870   57.1868 C.3     1  ZINC000893400114    0.0800
     19 C19       -14.2351   -5.3641   57.2304 C.3     1  ZINC000893400114    0.0500
     20 O20       -14.7431   -5.3017   55.8956 O.3     1  ZINC000893400114   -0.3800
     21 C21       -14.3711   -4.1198   55.1823 C.3     1  ZINC000893400114    0.0600
     22 C22       -12.8499   -4.0758   55.0361 C.3     1  ZINC000893400114    0.1400
     23 H23       -12.5210   -4.8798   54.3777 H       1  ZINC000893400114    0.0800
     24 C24       -12.4273   -2.7262   54.4522 C.3     1  ZINC000893400114   -0.1200
     25 C25       -13.2517   -2.4328   53.1972 C.3     1  ZINC000893400114    0.0700
     26 H26       -13.5582   -3.3683   52.7291 H       1  ZINC000893400114    0.0800
     27 C27       -12.4143   -1.5996   52.2032 C.3     1  ZINC000893400114   -0.1500
     28 C28       -13.4652   -0.6046   51.6399 C.3     1  ZINC000893400114   -0.1600
     29 C29       -14.3590   -0.3839   52.8862 C.3     1  ZINC000893400114    0.0500
     30 O30       -14.4078   -1.6618   53.5446 O.3     1  ZINC000893400114   -0.3800
     31 H31       -11.0582   -4.3254   58.5964 H       1  ZINC000893400114    0.4000
     32 H32        -8.9266   -4.4128   59.5585 H       1  ZINC000893400114    0.1000
     33 H33        -7.8767   -2.9586   59.6376 H       1  ZINC000893400114    0.1000
     34 H34       -10.3772   -3.6081   61.2263 H       1  ZINC000893400114    0.0700
     35 H35        -8.9295   -2.6860   61.7301 H       1  ZINC000893400114    0.0800
     36 H36       -10.6407   -0.9865   62.5304 H       1  ZINC000893400114    0.0900
     37 H37        -9.0692    0.6114   61.5040 H       1  ZINC000893400114    0.0800
     38 H38       -10.2830    1.0412   60.2735 H       1  ZINC000893400114    0.0900
     39 H39       -10.5556    1.4399   63.2883 H       1  ZINC000893400114    0.0500
     40 H40       -10.2787    2.7190   62.0816 H       1  ZINC000893400114    0.1000
     41 H41       -12.6995    0.2966   63.2922 H       1  ZINC000893400114    0.0500
     42 H42       -13.9193    0.7774   62.0882 H       1  ZINC000893400114    0.1000
     43 H43       -12.5287   -0.1564   60.2775 H       1  ZINC000893400114    0.0900
     44 H44       -12.8446   -1.4019   61.5108 H       1  ZINC000893400114    0.0700
     45 H45       -12.3621   -6.3231   56.7443 H       1  ZINC000893400114    0.0800
     46 H46       -12.3054   -5.2919   58.1972 H       1  ZINC000893400114    0.0800
     47 H47       -14.5989   -6.2692   57.7165 H       1  ZINC000893400114    0.1100
     48 H48       -14.5703   -4.4901   57.7887 H       1  ZINC000893400114    0.0500
     49 H49       -14.8328   -4.1299   54.1951 H       1  ZINC000893400114    0.1300
     50 H50       -14.7068   -3.2413   55.7332 H       1  ZINC000893400114    0.0500
     51 H51       -12.5969   -1.9420   55.1899 H       1  ZINC000893400114    0.0800
     52 H52       -11.3691   -2.7580   54.1925 H       1  ZINC000893400114    0.1100
     53 H53       -11.6148   -1.0684   52.7197 H       1  ZINC000893400114    0.0800
     54 H54       -12.0130   -2.2304   51.4100 H       1  ZINC000893400114    0.0800
     55 H55       -12.9948    0.3265   51.3240 H       1  ZINC000893400114    0.0800
     56 H56       -14.0325   -1.0525   50.8240 H       1  ZINC000893400114    0.0800
     57 H57       -13.9146    0.3641   53.5428 H       1  ZINC000893400114    0.0600
     58 H58       -15.3602   -0.0764   52.5842 H       1  ZINC000893400114    0.0800
@<TRIPOS>BOND
     1     1     2    2
     2     2     3   am
     3     2    17   am
     4     3     4    1
     5     3    31    1
     6     4     5    1
     7     4    15    1
     8     4     6    1
     9     6     7    1
    10     6    32    1
    11     6    33    1
    12     7     8    1
    13     7    34    1
    14     7    35    1
    15     8     9    1
    16     8    15   am
    17     9    14    1
    18     9    10    1
    19     9    36    1
    20    10    11    1
    21    10    37    1
    22    10    38    1
    23    11    12    1
    24    11    39    1
    25    11    40    1
    26    12    13    1
    27    13    14    1
    28    13    41    1
    29    13    42    1
    30    14    43    1
    31    14    44    1
    32    15    16    2
    33    17    22    1
    34    17    18    1
    35    18    19    1
    36    18    45    1
    37    18    46    1
    38    19    20    1
    39    19    47    1
    40    19    48    1
    41    20    21    1
    42    21    22    1
    43    21    49    1
    44    21    50    1
    45    22    23    1
    46    22    24    1
    47    24    25    1
    48    24    51    1
    49    24    52    1
    50    25    26    1
    51    25    30    1
    52    25    27    1
    53    27    28    1
    54    27    53    1
    55    27    54    1
    56    28    29    1
    57    28    55    1
    58    28    56    1
    59    29    30    1
    60    29    57    1
    61    29    58    1
@<TRIPOS>SUBSTRUCTURE
     1 ZINC000893400114        1 TEMP              0 ****  ****    0 ROOT


##########                                Name:    ZINC000991934963
##########                DOCK_Rotatable_Bonds:                   8
##########                         Heavy_Atoms:                  27
##########                    Molecular_Weight:             370.495
##########                DOCK_Rotatable_Bonds:                   8
##########                       Formal_Charge:          -0.0499997
##########                     HBond_Acceptors:                   6
##########                        HBond_Donors:                   1
##########                         Heavy_Atoms:                  27
##########                          Grid_Score:          -35.335682
##########                     Grid_vdw_energy:          -34.469475
##########                      Grid_es_energy:           -0.866206
##########           Internal_energy_repulsive:           11.773651

@<TRIPOS>MOLECULE
ZINC000991934963
 57 61 1 0 0
SMALL
USER_CHARGES


@<TRIPOS>ATOM
      1 C1        -14.4867   -1.0972   63.2054 C.3     1  ZINC000991934963    0.0400
      2 O2        -14.3175    0.2650   63.6028 O.3     1  ZINC000991934963   -0.2900
      3 C3        -13.0489    0.7368   63.6569 C.ar    1  ZINC000991934963    0.5000
      4 N4        -12.8179    1.9018   64.2397 N.ar    1  ZINC000991934963   -0.5700
      5 C5        -11.5909    2.3918   64.3100 C.ar    1  ZINC000991934963    0.1900
      6 C6        -10.5424    1.6689   63.7639 C.ar    1  ZINC000991934963   -0.2700
      7 C7        -10.8208    0.4522   63.1609 C.ar    1  ZINC000991934963    0.2200
      8 C8         -9.7130   -0.3692   62.5533 C.3     1  ZINC000991934963    0.1000
      9 N9        -10.2196   -1.0743   61.3683 N.3     1  ZINC000991934963   -0.4900
     10 C10        -9.4951   -2.3684   61.1634 C.3     1  ZINC000991934963    0.0400
     11 C11        -8.9867   -2.3634   59.6875 C.3     1  ZINC000991934963   -0.1400
     12 C12        -9.9658   -1.3878   59.0376 C.3     1  ZINC000991934963    0.1700
     13 N13       -11.2746   -1.9962   58.7865 N.am    1  ZINC000991934963   -0.7000
     14 C14       -11.3972   -2.9766   57.8699 C.2     1  ZINC000991934963    0.5200
     15 O15       -10.4243   -3.3542   57.2519 O.2     1  ZINC000991934963   -0.5300
     16 C16       -12.7432   -3.6037   57.6128 C.3     1  ZINC000991934963   -0.1100
     17 C17       -13.2522   -3.1724   56.2359 C.3     1  ZINC000991934963   -0.1300
     18 H18       -13.1841   -2.1056   56.0224 H       1  ZINC000991934963    0.1200
     19 C19       -14.4432   -3.9350   55.6522 C.3     1  ZINC000991934963   -0.1700
     20 C20       -13.0426   -4.1408   55.0701 C.3     1  ZINC000991934963   -0.1200
     21 H21       -12.5424   -5.0853   55.2840 H       1  ZINC000991934963    0.1000
     22 C22       -12.7542   -3.5383   53.6935 C.3     1  ZINC000991934963   -0.1200
     23 C23       -11.6891   -2.4431   53.6109 C.3     1  ZINC000991934963   -0.1800
     24 C24       -11.3940   -3.8401   53.0613 C.3     1  ZINC000991934963   -0.1800
     25 C25        -9.4972   -0.4999   57.8898 C.3     1  ZINC000991934963   -0.1200
     26 C26       -10.3721    0.7788   58.0763 C.3     1  ZINC000991934963   -0.1200
     27 C27       -10.7515    0.8196   59.5878 C.3     1  ZINC000991934963   -0.1000
     28 C28        -9.9909   -0.3149   60.1864 C.3     1  ZINC000991934963    0.0500
     29 H29        -8.9544    0.0172   60.2467 H       1  ZINC000991934963    0.0400
     30 N30       -12.0701    0.0186   63.1302 N.ar    1  ZINC000991934963   -0.5000
     31 H31       -13.9621   -1.7477   63.9052 H       1  ZINC000991934963    0.0600
     32 H32       -15.5480   -1.3461   63.2039 H       1  ZINC000991934963    0.1100
     33 H33       -14.0793   -1.2369   62.2041 H       1  ZINC000991934963    0.0600
     34 H34       -11.4087    3.3437   64.7868 H       1  ZINC000991934963    0.1700
     35 H35        -9.5310    2.0452   63.8067 H       1  ZINC000991934963    0.1500
     36 H36        -8.8920    0.2863   62.2627 H       1  ZINC000991934963    0.1000
     37 H37        -9.3568   -1.0957   63.2836 H       1  ZINC000991934963    0.0600
     38 H38        -8.6507   -2.4366   61.8492 H       1  ZINC000991934963    0.0600
     39 H39       -10.1743   -3.2061   61.3218 H       1  ZINC000991934963    0.0800
     40 H40        -7.9641   -1.9910   59.6266 H       1  ZINC000991934963    0.0800
     41 H41        -9.0679   -3.3548   59.2418 H       1  ZINC000991934963    0.0900
     42 H42       -12.0529   -1.6934   59.2799 H       1  ZINC000991934963    0.4000
     43 H43       -12.6498   -4.6893   57.6419 H       1  ZINC000991934963    0.1000
     44 H44       -13.4476   -3.2789   58.3785 H       1  ZINC000991934963    0.0900
     45 H45       -14.8643   -4.7440   56.2492 H       1  ZINC000991934963    0.0900
     46 H46       -15.1586   -3.3700   55.0546 H       1  ZINC000991934963    0.1000
     47 H47       -13.6125   -3.4576   53.0265 H       1  ZINC000991934963    0.1000
     48 H48       -11.8466   -1.6413   52.8893 H       1  ZINC000991934963    0.0900
     49 H49       -11.1939   -2.1517   54.5371 H       1  ZINC000991934963    0.0900
     50 H50       -10.7046   -4.4678   53.6259 H       1  ZINC000991934963    0.0900
     51 H51       -11.3573   -3.9575   51.9782 H       1  ZINC000991934963    0.0900
     52 H52        -8.4382   -0.2627   57.9909 H       1  ZINC000991934963    0.0800
     53 H53        -9.6998   -0.9709   56.9279 H       1  ZINC000991934963    0.0800
     54 H54        -9.8008    1.6675   57.8083 H       1  ZINC000991934963    0.0700
     55 H55       -11.2718    0.7111   57.4647 H       1  ZINC000991934963    0.0700
     56 H56       -10.4410    1.7645   60.0337 H       1  ZINC000991934963    0.0700
     57 H57       -11.8235    0.6701   59.7162 H       1  ZINC000991934963    0.0700
@<TRIPOS>BOND
     1     1     2    1
     2     1    31    1
     3     1    32    1
     4     1    33    1
     5     2     3    1
     6     3    30   ar
     7     3     4   ar
     8     4     5   ar
     9     5     6   ar
    10     5    34    1
    11     6     7   ar
    12     6    35    1
    13     7     8    1
    14     7    30   ar
    15     8     9    1
    16     8    36    1
    17     8    37    1
    18     9    28    1
    19     9    10    1
    20    10    11    1
    21    10    38    1
    22    10    39    1
    23    11    12    1
    24    11    40    1
    25    11    41    1
    26    12    28    1
    27    12    13    1
    28    12    25    1
    29    13    14   am
    30    13    42    1
    31    14    15    2
    32    14    16    1
    33    16    17    1
    34    16    43    1
    35    16    44    1
    36    17    18    1
    37    17    20    1
    38    17    19    1
    39    19    20    1
    40    19    45    1
    41    19    46    1
    42    20    21    1
    43    20    22    1
    44    22    24    1
    45    22    23    1
    46    22    47    1
    47    23    24    1
    48    23    48    1
    49    23    49    1
    50    24    50    1
    51    24    51    1
    52    25    26    1
    53    25    52    1
    54    25    53    1
    55    26    27    1
    56    26    54    1
    57    26    55    1
    58    27    28    1
    59    27    56    1
    60    27    57    1
    61    28    29    1
@<TRIPOS>SUBSTRUCTURE
     1 ZINC000991934963        1 TEMP              0 ****  ****    0 ROOT


##########                                Name:    ZINC000740930783
##########                DOCK_Rotatable_Bonds:                  11
##########                         Heavy_Atoms:                  27
##########                    Molecular_Weight:             413.257
##########                DOCK_Rotatable_Bonds:                  11
##########                       Formal_Charge:          -0.0100004
##########                     HBond_Acceptors:                   9
##########                        HBond_Donors:                   4
##########                         Heavy_Atoms:                  27
##########                          Grid_Score:          -35.321907
##########                     Grid_vdw_energy:          -35.470894
##########                      Grid_es_energy:            0.148988
##########           Internal_energy_repulsive:            8.713085

@<TRIPOS>MOLECULE
ZINC000740930783
 45 46 1 0 0
SMALL
USER_CHARGES


@<TRIPOS>ATOM
      1 C1         -8.9675    1.5421   57.9102 C.3     1  ZINC000740930783    0.0200
      2 O2         -9.9638    0.8021   58.6187 O.3     1  ZINC000740930783   -0.3000
      3 C3        -10.0553   -0.5273   58.3470 C.ar    1  ZINC000740930783    0.1200
      4 C4        -10.6325   -0.9526   57.1663 C.ar    1  ZINC000740930783   -0.1400
      5 C5        -10.7248   -2.3193   56.8894 C.ar    1  ZINC000740930783   -0.0800
      6 C6        -11.3404   -2.7786   55.6289 C.2     1  ZINC000740930783    0.5600
      7 O7        -12.3712   -3.4228   55.6552 O.2     1  ZINC000740930783   -0.5300
      8 N8        -10.7598   -2.4839   54.4488 N.am    1  ZINC000740930783   -0.7200
      9 C9        -11.3699   -2.9413   53.1979 C.3     1  ZINC000740930783    0.0900
     10 C10       -10.8678   -2.0767   52.0397 C.3     1  ZINC000740930783    0.1400
     11 H11       -11.2470   -2.4745   51.0984 H       1  ZINC000740930783    0.1200
     12 O12        -9.4389   -2.0888   52.0208 O.3     1  ZINC000740930783   -0.5500
     13 C13       -11.3558   -0.6624   52.2202 C.ar    1  ZINC000740930783   -0.1100
     14 C14       -10.6041    0.2405   52.9478 C.ar    1  ZINC000740930783   -0.1000
     15 C15       -11.0517    1.5381   53.1136 C.ar    1  ZINC000740930783   -0.1100
     16 C16       -12.2515    1.9328   52.5523 C.ar    1  ZINC000740930783   -0.1000
     17 C17       -13.0045    1.0305   51.8243 C.ar    1  ZINC000740930783   -0.1100
     18 C18       -12.5540   -0.2661   51.6529 C.ar    1  ZINC000740930783   -0.0300
     19 Cl19      -13.4989   -1.3998   50.7389 Cl      1  ZINC000740930783   -0.0600
     20 C20       -10.2329   -3.2498   57.8077 C.ar    1  ZINC000740930783   -0.1000
     21 C21        -9.6576   -2.8187   58.9849 C.ar    1  ZINC000740930783   -0.0200
     22 Cl22       -9.0462   -3.9764   60.1249 Cl      1  ZINC000740930783   -0.0300
     23 C23        -9.5614   -1.4603   59.2572 C.ar    1  ZINC000740930783    0.0900
     24 O24        -8.9940   -1.0403   60.4176 O.3     1  ZINC000740930783   -0.2900
     25 C25        -9.8797   -0.6465   61.4676 C.3     1  ZINC000740930783    0.0400
     26 C26        -9.1524   -0.7033   62.7862 C.2     1  ZINC000740930783    0.5200
     27 N27        -9.4185    0.2084   63.7424 N.am    1  ZINC000740930783   -0.8500
     28 O28        -8.3275   -1.5694   62.9869 O.2     1  ZINC000740930783   -0.5100
     29 H29        -7.9830    1.1296   58.1309 H       1  ZINC000740930783    0.0600
     30 H30        -9.1579    1.4745   56.8391 H       1  ZINC000740930783    0.0600
     31 H31        -9.0017    2.5866   58.2201 H       1  ZINC000740930783    0.1100
     32 H32       -11.0122   -0.2304   56.4588 H       1  ZINC000740930783    0.1600
     33 H33        -9.9380   -1.9690   54.4278 H       1  ZINC000740930783    0.4100
     34 H34       -11.0970   -3.9814   53.0196 H       1  ZINC000740930783    0.0900
     35 H35       -12.4541   -2.8574   53.2705 H       1  ZINC000740930783    0.0800
     36 H36        -9.0503   -1.5531   51.3157 H       1  ZINC000740930783    0.3800
     37 H37        -9.6669   -0.0676   53.3872 H       1  ZINC000740930783    0.1300
     38 H38       -10.4639    2.2434   53.6823 H       1  ZINC000740930783    0.1300
     39 H39       -12.6011    2.9464   52.6827 H       1  ZINC000740930783    0.1400
     40 H40       -13.9419    1.3392   51.3858 H       1  ZINC000740930783    0.1400
     41 H41       -10.3033   -4.3065   57.5962 H       1  ZINC000740930783    0.1500
     42 H42       -10.2269    0.3710   61.2877 H       1  ZINC000740930783    0.0900
     43 H43       -10.7344   -1.3226   61.4946 H       1  ZINC000740930783    0.0900
     44 H44        -8.9512    0.1712   64.5916 H       1  ZINC000740930783    0.4000
     45 H45       -10.0774    0.9019   63.5814 H       1  ZINC000740930783    0.4100
@<TRIPOS>BOND
     1     1     2    1
     2     1    29    1
     3     1    30    1
     4     1    31    1
     5     2     3    1
     6     3    23   ar
     7     3     4   ar
     8     4     5   ar
     9     4    32    1
    10     5     6    1
    11     5    20   ar
    12     6     7    2
    13     6     8   am
    14     8     9    1
    15     8    33    1
    16     9    10    1
    17     9    34    1
    18     9    35    1
    19    10    11    1
    20    10    12    1
    21    10    13    1
    22    12    36    1
    23    13    18   ar
    24    13    14   ar
    25    14    15   ar
    26    14    37    1
    27    15    16   ar
    28    15    38    1
    29    16    17   ar
    30    16    39    1
    31    17    18   ar
    32    17    40    1
    33    18    19    1
    34    20    21   ar
    35    20    41    1
    36    21    22    1
    37    21    23   ar
    38    23    24    1
    39    24    25    1
    40    25    26    1
    41    25    42    1
    42    25    43    1
    43    26    27   am
    44    26    28    2
    45    27    44    1
    46    27    45    1
@<TRIPOS>SUBSTRUCTURE
     1 ZINC000740930783        1 TEMP              0 ****  ****    0 ROOT


##########                                Name:    ZINC000654382142
##########                DOCK_Rotatable_Bonds:                  14
##########                         Heavy_Atoms:                  24
##########                    Molecular_Weight:             379.401
##########                DOCK_Rotatable_Bonds:                  14
##########                       Formal_Charge:          0.00999933
##########                     HBond_Acceptors:                  12
##########                        HBond_Donors:                   2
##########                         Heavy_Atoms:                  24
##########                          Grid_Score:          -35.314453
##########                     Grid_vdw_energy:          -34.362061
##########                      Grid_es_energy:           -0.952392
##########           Internal_energy_repulsive:           20.163212

@<TRIPOS>MOLECULE
ZINC000654382142
 48 47 1 0 0
SMALL
USER_CHARGES


@<TRIPOS>ATOM
      1 C1         -7.4286   -0.8993   51.5230 C.3     1  ZINC000654382142    0.0300
      2 O2         -8.5635   -1.7676   51.5450 O.3     1  ZINC000654382142   -0.3700
      3 C3         -9.6694   -1.2596   52.2938 C.3     1  ZINC000654382142    0.0400
      4 C4        -10.8702   -2.1929   52.1265 C.3     1  ZINC000654382142    0.1400
      5 N5        -11.9120   -1.8258   53.0889 N.am    1  ZINC000654382142   -0.6100
      6 C6        -12.9511   -0.8644   52.7124 C.3     1  ZINC000654382142    0.0800
      7 C7        -13.8778   -1.4964   51.6717 C.3     1  ZINC000654382142    0.0500
      8 H8        -13.2857   -2.0692   50.9581 H       1  ZINC000654382142    0.1400
      9 O9        -14.5911   -0.4680   50.9820 O.3     1  ZINC000654382142   -0.5200
     10 C10       -14.8721   -2.4253   52.3714 C.3     1  ZINC000654382142    0.4200
     11 F11       -15.4222   -1.7707   53.4787 F       1  ZINC000654382142   -0.1800
     12 F12       -15.8930   -2.7721   51.4800 F       1  ZINC000654382142   -0.1700
     13 F13       -14.2101   -3.5826   52.7953 F       1  ZINC000654382142   -0.1800
     14 C14       -11.9143   -2.3727   54.3207 C.2     1  ZINC000654382142    0.7100
     15 O15       -11.0508   -3.1695   54.6337 O.2     1  ZINC000654382142   -0.5600
     16 N16       -12.8735   -2.0362   55.2055 N.am    1  ZINC000654382142   -0.7500
     17 C17       -12.8770   -2.6320   56.5440 C.3     1  ZINC000654382142    0.1400
     18 C18       -12.0145   -1.7847   57.4816 C.3     1  ZINC000654382142   -0.1600
     19 C19       -11.8465   -2.5125   58.8168 C.3     1  ZINC000654382142    0.1200
     20 N20       -10.6065   -3.2924   58.7953 N.am    1  ZINC000654382142   -1.0000
     21 C21       -10.5787   -4.6064   58.1481 C.3     1  ZINC000654382142    0.0900
     22 S22        -9.2363   -2.6887   59.5025 S.o2    1  ZINC000654382142    2.6100
     23 C23        -9.6905   -2.4552   61.2432 C.3     1  ZINC000654382142   -0.6800
     24 O24        -8.2841   -3.7354   59.3717 O.2     1  ZINC000654382142   -0.9500
     25 O25        -9.0374   -1.4336   58.8665 O.2     1  ZINC000654382142   -0.9500
     26 H26        -6.6328   -1.3564   50.9350 H       1  ZINC000654382142    0.0900
     27 H27        -7.7092    0.0542   51.0756 H       1  ZINC000654382142    0.0400
     28 H28        -7.0783   -0.7335   52.5418 H       1  ZINC000654382142    0.0400
     29 H29        -9.3986   -1.2016   53.3480 H       1  ZINC000654382142    0.0500
     30 H30        -9.9285   -0.2653   51.9301 H       1  ZINC000654382142    0.0600
     31 H31       -11.2628   -2.1017   51.1137 H       1  ZINC000654382142    0.0900
     32 H32       -10.5580   -3.2220   52.3037 H       1  ZINC000654382142    0.1000
     33 H33       -13.5292   -0.5900   53.5947 H       1  ZINC000654382142    0.1000
     34 H34       -12.4861    0.0270   52.2911 H       1  ZINC000654382142    0.1000
     35 H35       -15.2592   -0.7980   50.3658 H       1  ZINC000654382142    0.3900
     36 H36       -13.5616   -1.3996   54.9563 H       1  ZINC000654382142    0.3900
     37 H37       -13.8984   -2.6679   56.9230 H       1  ZINC000654382142    0.0700
     38 H38       -12.4728   -3.6430   56.4927 H       1  ZINC000654382142    0.0700
     39 H39       -11.0358   -1.6247   57.0294 H       1  ZINC000654382142    0.0700
     40 H40       -12.4985   -0.8229   57.6505 H       1  ZINC000654382142    0.0800
     41 H41       -11.8028   -1.7829   59.6255 H       1  ZINC000654382142    0.0900
     42 H42       -12.6932   -3.1805   58.9756 H       1  ZINC000654382142    0.1000
     43 H43       -10.3085   -4.4889   57.0987 H       1  ZINC000654382142    0.0600
     44 H44        -9.8436   -5.2402   58.6439 H       1  ZINC000654382142    0.0700
     45 H45       -11.5637   -5.0677   58.2201 H       1  ZINC000654382142    0.0700
     46 H46        -9.9827   -3.4130   61.6740 H       1  ZINC000654382142    0.1300
     47 H47        -8.8370   -2.0557   61.7910 H       1  ZINC000654382142    0.1300
     48 H48       -10.5247   -1.7569   61.3105 H       1  ZINC000654382142    0.1300
@<TRIPOS>BOND
     1     1     2    1
     2     1    26    1
     3     1    27    1
     4     1    28    1
     5     2     3    1
     6     3     4    1
     7     3    29    1
     8     3    30    1
     9     4     5    1
    10     4    31    1
    11     4    32    1
    12     5     6    1
    13     5    14   am
    14     6     7    1
    15     6    33    1
    16     6    34    1
    17     7     8    1
    18     7     9    1
    19     7    10    1
    20     9    35    1
    21    10    11    1
    22    10    12    1
    23    10    13    1
    24    14    15    2
    25    14    16   am
    26    16    17    1
    27    16    36    1
    28    17    18    1
    29    17    37    1
    30    17    38    1
    31    18    19    1
    32    18    39    1
    33    18    40    1
    34    19    20    1
    35    19    41    1
    36    19    42    1
    37    20    21    1
    38    20    22   am
    39    21    43    1
    40    21    44    1
    41    21    45    1
    42    22    23    1
    43    22    24    2
    44    22    25    2
    45    23    46    1
    46    23    47    1
    47    23    48    1
@<TRIPOS>SUBSTRUCTURE
     1 ZINC000654382142        1 TEMP              0 ****  ****    0 ROOT


##########                                Name:    ZINC000805177769
##########                DOCK_Rotatable_Bonds:                  10
##########                         Heavy_Atoms:                  30
##########                    Molecular_Weight:             417.548
##########                DOCK_Rotatable_Bonds:                  10
##########                       Formal_Charge:           0.0199995
##########                     HBond_Acceptors:                   7
##########                        HBond_Donors:                   1
##########                         Heavy_Atoms:                  30
##########                          Grid_Score:          -35.310692
##########                     Grid_vdw_energy:          -34.843441
##########                      Grid_es_energy:           -0.467252
##########           Internal_energy_repulsive:           55.538040

@<TRIPOS>MOLECULE
ZINC000805177769
 65 66 1 0 0
SMALL
USER_CHARGES


@<TRIPOS>ATOM
      1 C1         -9.3619    1.4636   64.5221 C.3     1  ZINC000805177769   -0.1200
      2 C2         -9.4537    0.7120   63.2190 C.ar    1  ZINC000805177769   -0.0800
      3 C3         -9.0494   -0.6079   63.1527 C.ar    1  ZINC000805177769   -0.1200
      4 C4         -9.1336   -1.2974   61.9572 C.ar    1  ZINC000805177769   -0.1100
      5 C5         -9.6223   -0.6667   60.8286 C.ar    1  ZINC000805177769   -0.0900
      6 C6         -9.7137   -1.4181   59.5255 C.3     1  ZINC000805177769   -0.0900
      7 C7        -10.0862   -2.8760   59.8026 C.3     1  ZINC000805177769    0.1500
      8 H8        -10.4347   -2.9729   60.8308 H       1  ZINC000805177769    0.1000
      9 C9         -8.8582   -3.7645   59.5945 C.3     1  ZINC000805177769   -0.1700
     10 N10       -11.1503   -3.2909   58.8851 N.am    1  ZINC000805177769   -0.6900
     11 C11       -12.4188   -2.8886   59.0983 C.2     1  ZINC000805177769    0.5100
     12 O12       -12.6798   -2.1838   60.0511 O.2     1  ZINC000805177769   -0.5100
     13 C13       -13.5040   -3.3104   58.1613 C.2     1  ZINC000805177769    0.5200
     14 O14       -14.5085   -3.8363   58.5936 O.2     1  ZINC000805177769   -0.5200
     15 N15       -13.3668   -3.1068   56.8361 N.am    1  ZINC000805177769   -0.5900
     16 C16       -14.3514   -3.4710   55.8068 C.3     1  ZINC000805177769    0.1100
     17 C17       -13.7782   -3.0236   54.4456 C.3     1  ZINC000805177769   -0.1500
     18 C18       -12.7575   -1.9245   54.8428 C.3     1  ZINC000805177769    0.1500
     19 H19       -13.2544   -0.9664   54.9946 H       1  ZINC000805177769    0.1200
     20 N20       -11.6944   -1.8088   53.8414 N.am    1  ZINC000805177769   -0.5900
     21 C21       -11.0961   -3.0156   53.2653 C.3     1  ZINC000805177769    0.0800
     22 C22       -11.2666   -0.5920   53.4504 C.2     1  ZINC000805177769    0.6600
     23 O23       -10.3836   -0.4960   52.6211 O.2     1  ZINC000805177769   -0.5600
     24 O24       -11.8173    0.5171   53.9788 O.3     1  ZINC000805177769   -0.3600
     25 C25       -11.3288    1.7935   53.4883 C.3     1  ZINC000805177769    0.1400
     26 C26       -11.5598    1.8820   51.9784 C.3     1  ZINC000805177769   -0.1800
     27 C27       -12.0795    2.9292   54.1864 C.3     1  ZINC000805177769   -0.1400
     28 C28        -9.8324    1.9143   53.7832 C.3     1  ZINC000805177769   -0.1800
     29 C29       -12.2074   -2.4764   56.1792 C.3     1  ZINC000805177769    0.0900
     30 C30       -10.0281    0.6533   60.8954 C.ar    1  ZINC000805177769   -0.0800
     31 C31       -10.5614    1.3408   59.6650 C.3     1  ZINC000805177769   -0.1200
     32 C32        -9.9475    1.3414   62.0914 C.ar    1  ZINC000805177769   -0.1200
     33 H33       -10.2894    1.3373   65.0805 H       1  ZINC000805177769    0.0700
     34 H34        -8.5292    1.0745   65.1081 H       1  ZINC000805177769    0.0700
     35 H35        -9.2007    2.5225   64.3202 H       1  ZINC000805177769    0.0700
     36 H36        -8.6675   -1.1007   64.0345 H       1  ZINC000805177769    0.1200
     37 H37        -8.8170   -2.3287   61.9052 H       1  ZINC000805177769    0.1200
     38 H38       -10.4770   -0.9615   58.8956 H       1  ZINC000805177769    0.0800
     39 H39        -8.7510   -1.3796   59.0156 H       1  ZINC000805177769    0.0900
     40 H40        -8.5096   -3.6676   58.5663 H       1  ZINC000805177769    0.0600
     41 H41        -8.0665   -3.4558   60.2772 H       1  ZINC000805177769    0.0700
     42 H42        -9.1235   -4.8032   59.7919 H       1  ZINC000805177769    0.0600
     43 H43       -10.9419   -3.8553   58.1242 H       1  ZINC000805177769    0.4100
     44 H44       -14.5064   -4.5500   55.8072 H       1  ZINC000805177769    0.0900
     45 H45       -15.2944   -2.9589   55.9983 H       1  ZINC000805177769    0.0900
     46 H46       -13.2771   -3.8531   53.9468 H       1  ZINC000805177769    0.0900
     47 H47       -14.5638   -2.6099   53.8135 H       1  ZINC000805177769    0.0900
     48 H48       -11.6527   -3.3074   52.3748 H       1  ZINC000805177769    0.0600
     49 H49       -10.0593   -2.8141   52.9960 H       1  ZINC000805177769    0.0800
     50 H50       -11.1312   -3.8232   53.9966 H       1  ZINC000805177769    0.0800
     51 H51       -12.6259    1.7958   51.7682 H       1  ZINC000805177769    0.0600
     52 H52       -11.1931    2.8400   51.6102 H       1  ZINC000805177769    0.0700
     53 H53       -11.0250    1.0728   51.4810 H       1  ZINC000805177769    0.0900
     54 H54       -11.9150    2.8663   55.2621 H       1  ZINC000805177769    0.0700
     55 H55       -11.7129    3.8874   53.8183 H       1  ZINC000805177769    0.0800
     56 H56       -13.1457    2.8431   53.9763 H       1  ZINC000805177769    0.0700
     57 H57        -9.2976    1.1053   53.2858 H       1  ZINC000805177769    0.0900
     58 H58        -9.4657    2.8725   53.4151 H       1  ZINC000805177769    0.0700
     59 H59        -9.6679    1.8513   54.8589 H       1  ZINC000805177769    0.0600
     60 H60       -11.8149   -1.6649   56.7918 H       1  ZINC000805177769    0.0900
     61 H61       -11.4330   -3.2204   55.9923 H       1  ZINC000805177769    0.0800
     62 H62       -11.6412    1.2020   59.6106 H       1  ZINC000805177769    0.0700
     63 H63       -10.3341    2.4056   59.7164 H       1  ZINC000805177769    0.0700
     64 H64       -10.0949    0.9121   58.7781 H       1  ZINC000805177769    0.0700
     65 H65       -10.2643    2.3725   62.1436 H       1  ZINC000805177769    0.1200
@<TRIPOS>BOND
     1     1     2    1
     2     1    33    1
     3     1    34    1
     4     1    35    1
     5     2    32   ar
     6     2     3   ar
     7     3     4   ar
     8     3    36    1
     9     4     5   ar
    10     4    37    1
    11     5     6    1
    12     5    30   ar
    13     6     7    1
    14     6    38    1
    15     6    39    1
    16     7     8    1
    17     7     9    1
    18     7    10    1
    19     9    40    1
    20     9    41    1
    21     9    42    1
    22    10    11   am
    23    10    43    1
    24    11    12    2
    25    11    13    1
    26    13    14    2
    27    13    15   am
    28    15    29    1
    29    15    16    1
    30    16    17    1
    31    16    44    1
    32    16    45    1
    33    17    18    1
    34    17    46    1
    35    17    47    1
    36    18    19    1
    37    18    20    1
    38    18    29    1
    39    20    21    1
    40    20    22   am
    41    21    48    1
    42    21    49    1
    43    21    50    1
    44    22    23    2
    45    22    24    1
    46    24    25    1
    47    25    26    1
    48    25    27    1
    49    25    28    1
    50    26    51    1
    51    26    52    1
    52    26    53    1
    53    27    54    1
    54    27    55    1
    55    27    56    1
    56    28    57    1
    57    28    58    1
    58    28    59    1
    59    29    60    1
    60    29    61    1
    61    30    31    1
    62    30    32   ar
    63    31    62    1
    64    31    63    1
    65    31    64    1
    66    32    65    1
@<TRIPOS>SUBSTRUCTURE
     1 ZINC000805177769        1 TEMP              0 ****  ****    0 ROOT


##########                                Name:    ZINC000864730443
##########                DOCK_Rotatable_Bonds:                  10
##########                         Heavy_Atoms:                  25
##########                    Molecular_Weight:             356.462
##########                DOCK_Rotatable_Bonds:                  10
##########                       Formal_Charge:           0.0299988
##########                     HBond_Acceptors:                   7
##########                        HBond_Donors:                   2
##########                         Heavy_Atoms:                  25
##########                          Grid_Score:          -35.289753
##########                     Grid_vdw_energy:          -34.148911
##########                      Grid_es_energy:           -1.140844
##########           Internal_energy_repulsive:           22.009399

@<TRIPOS>MOLECULE
ZINC000864730443
 57 58 1 0 0
SMALL
USER_CHARGES


@<TRIPOS>ATOM
      1 C1        -10.3967    0.0388   55.0009 C.3     1  ZINC000864730443   -0.1800
      2 C2        -10.3818   -0.5588   53.5925 C.3     1  ZINC000864730443    0.1400
      3 C3        -11.7415   -0.3333   52.9283 C.3     1  ZINC000864730443   -0.1800
      4 C4         -9.2900    0.1191   52.7623 C.3     1  ZINC000864730443   -0.1400
      5 O5        -10.1133   -1.9835   53.6742 O.3     1  ZINC000864730443   -0.3600
      6 C6        -11.1772   -2.8003   53.7919 C.2     1  ZINC000864730443    0.6500
      7 O7        -11.6015   -3.3893   52.8174 O.2     1  ZINC000864730443   -0.5700
      8 N8        -11.7713   -2.9646   54.9903 N.am    1  ZINC000864730443   -0.7100
      9 C9        -12.9278   -3.8548   55.1187 C.3     1  ZINC000864730443    0.1500
     10 C10       -13.3130   -3.9809   56.5940 C.3     1  ZINC000864730443   -0.1300
     11 C11       -12.0774   -4.2407   57.4167 C.2     1  ZINC000864730443    0.5300
     12 O12       -11.6350   -5.3663   57.5075 O.2     1  ZINC000864730443   -0.5300
     13 N13       -11.4641   -3.2223   58.0516 N.am    1  ZINC000864730443   -0.7200
     14 C14       -10.2630   -3.4749   58.8514 C.3     1  ZINC000864730443    0.1200
     15 C15        -9.4666   -2.1769   58.9996 C.3     1  ZINC000864730443   -0.1300
     16 C16       -10.3433   -1.1138   59.6646 C.3     1  ZINC000864730443    0.0800
     17 H17       -11.2234   -0.9137   59.0535 H       1  ZINC000864730443    0.0800
     18 C18       -10.7662   -1.5752   61.0820 C.3     1  ZINC000864730443   -0.1500
     19 C19       -11.0348   -0.2085   61.7690 C.3     1  ZINC000864730443   -0.1600
     20 C20        -9.9783    0.7033   61.1087 C.3     1  ZINC000864730443    0.0500
     21 O21        -9.5934    0.0942   59.8693 O.3     1  ZINC000864730443   -0.3800
     22 C22       -13.9778   -2.6828   57.0622 C.3     1  ZINC000864730443   -0.1000
     23 C23       -14.4288   -2.8488   58.5167 C.3     1  ZINC000864730443   -0.1600
     24 C24       -15.3696   -4.0523   58.6169 C.3     1  ZINC000864730443    0.0600
     25 O25       -14.7000   -5.2200   58.1372 O.3     1  ZINC000864730443   -0.3700
     26 C26       -14.2969   -5.1407   56.7684 C.3     1  ZINC000864730443    0.0800
     27 H27       -11.1746   -0.4441   55.5923 H       1  ZINC000864730443    0.0900
     28 H28        -9.4281   -0.1218   55.4741 H       1  ZINC000864730443    0.0600
     29 H29       -10.5983    1.1083   54.9395 H       1  ZINC000864730443    0.0700
     30 H30       -11.9430    0.7361   52.8670 H       1  ZINC000864730443    0.0700
     31 H31       -11.7308   -0.7592   51.9250 H       1  ZINC000864730443    0.0600
     32 H32       -12.5193   -0.8164   53.5198 H       1  ZINC000864730443    0.0900
     33 H33        -8.3212   -0.0415   53.2356 H       1  ZINC000864730443    0.0700
     34 H34        -9.2793   -0.3067   51.7590 H       1  ZINC000864730443    0.0700
     35 H35        -9.4915    1.1886   52.7010 H       1  ZINC000864730443    0.0800
     36 H36       -11.4333   -2.4934   55.7680 H       1  ZINC000864730443    0.4100
     37 H37       -13.7670   -3.4433   54.5579 H       1  ZINC000864730443    0.0900
     38 H38       -12.6744   -4.8387   54.7239 H       1  ZINC000864730443    0.0800
     39 H39       -11.8179   -2.3220   57.9789 H       1  ZINC000864730443    0.4000
     40 H40       -10.5529   -3.8379   59.8375 H       1  ZINC000864730443    0.0700
     41 H41        -9.6468   -4.2246   58.3549 H       1  ZINC000864730443    0.0700
     42 H42        -8.5861   -2.3592   59.6157 H       1  ZINC000864730443    0.0800
     43 H43        -9.1552   -1.8273   58.0153 H       1  ZINC000864730443    0.0800
     44 H44       -11.6718   -2.1807   61.0441 H       1  ZINC000864730443    0.0900
     45 H45        -9.9575   -2.1120   61.5780 H       1  ZINC000864730443    0.0800
     46 H46       -12.0427    0.1441   61.5504 H       1  ZINC000864730443    0.0800
     47 H47       -10.8710   -0.2762   62.8446 H       1  ZINC000864730443    0.0800
     48 H48       -10.4066    1.6874   60.9182 H       1  ZINC000864730443    0.0700
     49 H49        -9.1105    0.7965   61.7615 H       1  ZINC000864730443    0.0700
     50 H50       -13.2639   -1.8620   56.9932 H       1  ZINC000864730443    0.0800
     51 H51       -14.8429   -2.4690   56.4344 H       1  ZINC000864730443    0.0800
     52 H52       -13.5581   -3.0132   59.1514 H       1  ZINC000864730443    0.0900
     53 H53       -14.9522   -1.9492   58.8407 H       1  ZINC000864730443    0.0800
     54 H54       -15.6600   -4.2011   59.6568 H       1  ZINC000864730443    0.1000
     55 H55       -16.2589   -3.8697   58.0136 H       1  ZINC000864730443    0.0500
     56 H56       -15.1723   -4.9723   56.1410 H       1  ZINC000864730443    0.0700
     57 H57       -13.8146   -6.0736   56.4769 H       1  ZINC000864730443    0.1000
@<TRIPOS>BOND
     1     1     2    1
     2     1    27    1
     3     1    28    1
     4     1    29    1
     5     2     3    1
     6     2     4    1
     7     2     5    1
     8     3    30    1
     9     3    31    1
    10     3    32    1
    11     4    33    1
    12     4    34    1
    13     4    35    1
    14     5     6    1
    15     6     7    2
    16     6     8   am
    17     8     9    1
    18     8    36    1
    19     9    10    1
    20     9    37    1
    21     9    38    1
    22    10    26    1
    23    10    11    1
    24    10    22    1
    25    11    12    2
    26    11    13   am
    27    13    14    1
    28    13    39    1
    29    14    15    1
    30    14    40    1
    31    14    41    1
    32    15    16    1
    33    15    42    1
    34    15    43    1
    35    16    17    1
    36    16    21    1
    37    16    18    1
    38    18    19    1
    39    18    44    1
    40    18    45    1
    41    19    20    1
    42    19    46    1
    43    19    47    1
    44    20    21    1
    45    20    48    1
    46    20    49    1
    47    22    23    1
    48    22    50    1
    49    22    51    1
    50    23    24    1
    51    23    52    1
    52    23    53    1
    53    24    25    1
    54    24    54    1
    55    24    55    1
    56    25    26    1
    57    26    56    1
    58    26    57    1
@<TRIPOS>SUBSTRUCTURE
     1 ZINC000864730443        1 TEMP              0 ****  ****    0 ROOT


##########                                Name:    ZINC000439870054
##########                DOCK_Rotatable_Bonds:                   5
##########                         Heavy_Atoms:                  27
##########                    Molecular_Weight:             421.974
##########                DOCK_Rotatable_Bonds:                   5
##########                       Formal_Charge:           0.0200003
##########                     HBond_Acceptors:                   9
##########                        HBond_Donors:                   0
##########                         Heavy_Atoms:                  27
##########                          Grid_Score:          -35.283482
##########                     Grid_vdw_energy:          -34.970512
##########                      Grid_es_energy:           -0.312970
##########           Internal_energy_repulsive:           67.689949

@<TRIPOS>MOLECULE
ZINC000439870054
 47 50 1 0 0
SMALL
USER_CHARGES


@<TRIPOS>ATOM
      1 C1         -9.7250   -0.9590   61.0079 C.3     1  ZINC000439870054   -0.1400
      2 C2         -9.8450   -2.0547   59.9468 C.3     1  ZINC000439870054    0.0000
      3 C3         -9.2256   -3.3491   60.4780 C.3     1  ZINC000439870054   -0.1400
      4 C4        -11.2993   -2.2879   59.6276 C.2     1  ZINC000439870054    0.1900
      5 N5        -12.3008   -2.2108   60.4657 N.2     1  ZINC000439870054   -0.2900
      6 N6        -13.4037   -2.4732   59.8516 N.2     1  ZINC000439870054   -0.2700
      7 C7        -13.1530   -2.7291   58.6049 C.2     1  ZINC000439870054    0.1600
      8 C8        -14.1186   -3.0997   57.5051 C.3     1  ZINC000439870054    0.2400
      9 H9        -14.4934   -4.1108   57.6641 H       1  ZINC000439870054    0.1100
     10 C10       -15.2844   -2.1093   57.4782 C.3     1  ZINC000439870054   -0.1300
     11 N11       -13.3705   -3.0339   56.2353 N.am    1  ZINC000439870054   -0.6300
     12 C12       -13.9146   -2.4704   55.1387 C.2     1  ZINC000439870054    0.5300
     13 O13       -15.0348   -2.0080   55.1869 O.2     1  ZINC000439870054   -0.4900
     14 C14       -13.1312   -2.4147   53.8525 C.3     1  ZINC000439870054   -0.0700
     15 C15       -12.1002   -1.3190   53.9394 C.2     1  ZINC000439870054    0.0900
     16 C16       -12.2384   -0.2792   54.7670 C.2     1  ZINC000439870054   -0.2400
     17 S17       -10.8364    0.7712   54.5740 S.3     1  ZINC000439870054    0.1300
     18 C18       -10.1850   -0.3283   53.3613 C.2     1  ZINC000439870054    0.1400
     19 C19        -8.9154   -0.1491   52.6404 C.2     1  ZINC000439870054   -0.1300
     20 C20        -8.3146   -1.0854   51.8740 C.2     1  ZINC000439870054   -0.1000
     21 C21        -7.1290   -0.6836   51.2979 C.2     1  ZINC000439870054   -0.1200
     22 C22        -6.7552    0.5693   51.5848 C.2     1  ZINC000439870054   -0.1500
     23 Cl23       -5.3130    1.3396   51.0012 Cl      1  ZINC000439870054    0.0000
     24 S24        -7.9482    1.3200   52.6363 S.3     1  ZINC000439870054    0.2500
     25 N25       -11.0075   -1.3300   53.2097 N.2     1  ZINC000439870054   -0.4400
     26 C26       -12.0136   -3.6005   56.2003 C.3     1  ZINC000439870054    0.0900
     27 C27       -11.1117   -2.8116   57.1568 C.3     1  ZINC000439870054    0.0900
     28 N28       -11.8132   -2.6092   58.4237 N.pl3   1  ZINC000439870054   -0.4700
     29 H29        -8.6732   -0.7904   61.2388 H       1  ZINC000439870054    0.0700
     30 H30       -10.1664   -0.0369   60.6295 H       1  ZINC000439870054    0.0500
     31 H31       -10.2502   -1.2691   61.9113 H       1  ZINC000439870054    0.0700
     32 H32        -9.3199   -1.7447   59.0434 H       1  ZINC000439870054    0.0800
     33 H33        -9.3111   -4.1297   59.7220 H       1  ZINC000439870054    0.0500
     34 H34        -8.1738   -3.1804   60.7088 H       1  ZINC000439870054    0.0700
     35 H35        -9.7507   -3.6591   61.3814 H       1  ZINC000439870054    0.0700
     36 H36       -14.9241   -1.1326   57.1554 H       1  ZINC000439870054    0.0600
     37 H37       -16.0461   -2.4634   56.7835 H       1  ZINC000439870054    0.0900
     38 H38       -15.7138   -2.0264   58.4767 H       1  ZINC000439870054    0.0700
     39 H39       -12.6329   -3.3702   53.6889 H       1  ZINC000439870054    0.1100
     40 H40       -13.8086   -2.2113   53.0231 H       1  ZINC000439870054    0.1200
     41 H41       -13.0672   -0.1110   55.4387 H       1  ZINC000439870054    0.1800
     42 H42        -8.7303   -2.0710   51.7251 H       1  ZINC000439870054    0.1500
     43 H43        -6.5443   -1.3318   50.6620 H       1  ZINC000439870054    0.1600
     44 H44       -12.0472   -4.6451   56.5099 H       1  ZINC000439870054    0.0900
     45 H45       -11.6171   -3.5331   55.1872 H       1  ZINC000439870054    0.1200
     46 H46       -10.1914   -3.3687   57.3323 H       1  ZINC000439870054    0.1100
     47 H47       -10.8739   -1.8428   56.7174 H       1  ZINC000439870054    0.0900
@<TRIPOS>BOND
     1     1     2    1
     2     1    29    1
     3     1    30    1
     4     1    31    1
     5     2     3    1
     6     2     4    1
     7     2    32    1
     8     3    33    1
     9     3    34    1
    10     3    35    1
    11     4    28    1
    12     4     5    2
    13     5     6    1
    14     6     7    2
    15     7    28    1
    16     7     8    1
    17     8     9    1
    18     8    10    1
    19     8    11    1
    20    10    36    1
    21    10    37    1
    22    10    38    1
    23    11    12   am
    24    11    26    1
    25    12    13    2
    26    12    14    1
    27    14    15    1
    28    14    39    1
    29    14    40    1
    30    15    25    1
    31    15    16    2
    32    16    17    1
    33    16    41    1
    34    17    18    1
    35    18    19    1
    36    18    25    2
    37    19    24    1
    38    19    20    2
    39    20    21    1
    40    20    42    1
    41    21    22    2
    42    21    43    1
    43    22    23    1
    44    22    24    1
    45    26    27    1
    46    26    44    1
    47    26    45    1
    48    27    28    1
    49    27    46    1
    50    27    47    1
@<TRIPOS>SUBSTRUCTURE
     1 ZINC000439870054        1 TEMP              0 ****  ****    0 ROOT


##########                                Name:    ZINC000432058199
##########                DOCK_Rotatable_Bonds:                   5
##########                         Heavy_Atoms:                  30
##########                    Molecular_Weight:             406.441
##########                DOCK_Rotatable_Bonds:                   5
##########                       Formal_Charge:        -4.02331e-07
##########                     HBond_Acceptors:                   8
##########                        HBond_Donors:                   1
##########                         Heavy_Atoms:                  30
##########                          Grid_Score:          -35.266945
##########                     Grid_vdw_energy:          -35.558662
##########                      Grid_es_energy:            0.291718
##########           Internal_energy_repulsive:           15.477025

@<TRIPOS>MOLECULE
ZINC000432058199
 52 55 1 0 0
SMALL
USER_CHARGES


@<TRIPOS>ATOM
      1 C1         -6.9127    0.8498   66.1837 C.3     1  ZINC000432058199    0.0300
      2 O2         -7.7923    1.9512   65.9478 O.3     1  ZINC000432058199   -0.3100
      3 C3         -8.6520    1.8410   64.9010 C.ar    1  ZINC000432058199    0.1300
      4 C4         -9.5336    2.8742   64.6154 C.ar    1  ZINC000432058199   -0.1900
      5 C5        -10.4097    2.7663   63.5515 C.ar    1  ZINC000432058199   -0.0800
      6 C6        -10.4125    1.6303   62.7673 C.ar    1  ZINC000432058199   -0.1100
      7 C7         -9.5300    0.5886   63.0471 C.ar    1  ZINC000432058199    0.0100
      8 C8         -9.5307   -0.6338   62.2050 C.2     1  ZINC000432058199    0.2100
      9 N9         -8.7823   -1.6926   62.3733 N.2     1  ZINC000432058199   -0.3700
     10 O10        -9.0252   -2.5153   61.5158 O.3     1  ZINC000432058199    0.1200
     11 C11        -9.9745   -2.0546   60.6952 C.2     1  ZINC000432058199    0.1600
     12 C12       -10.5555   -2.7739   59.5053 C.3     1  ZINC000432058199    0.2500
     13 H13       -11.4998   -3.2393   59.7875 H       1  ZINC000432058199    0.1500
     14 C14        -9.5771   -3.8513   59.0331 C.3     1  ZINC000432058199   -0.1700
     15 N15       -10.7877   -1.8162   58.4212 N.am    1  ZINC000432058199   -0.5800
     16 C16        -9.8448   -1.0165   57.9100 C.2     1  ZINC000432058199    0.7000
     17 O17        -8.6917   -1.0006   58.2937 O.2     1  ZINC000432058199   -0.5100
     18 N18       -10.3156   -0.2321   56.9238 N.am    1  ZINC000432058199   -0.7200
     19 C19       -11.7438   -0.5591   56.7708 C.3     1  ZINC000432058199    0.1400
     20 H20       -12.3615    0.3155   56.9748 H       1  ZINC000432058199    0.1400
     21 C21       -12.0209   -1.0911   55.3882 C.ar    1  ZINC000432058199   -0.1000
     22 C22       -11.4812   -2.3006   54.9921 C.ar    1  ZINC000432058199   -0.1000
     23 C23       -11.7353   -2.7885   53.7239 C.ar    1  ZINC000432058199   -0.0800
     24 C24       -11.1467   -4.1068   53.2919 C.3     1  ZINC000432058199   -0.1200
     25 C25       -12.5297   -2.0675   52.8522 C.ar    1  ZINC000432058199   -0.1100
     26 C26       -13.0697   -0.8582   53.2486 C.ar    1  ZINC000432058199   -0.0800
     27 C27       -13.9354   -0.0718   52.2981 C.3     1  ZINC000432058199   -0.1200
     28 C28       -12.8191   -0.3723   54.5182 C.ar    1  ZINC000432058199   -0.1000
     29 C29       -11.9763   -1.6360   57.8120 C.2     1  ZINC000432058199    0.5300
     30 O30       -13.0163   -2.2113   58.0510 O.2     1  ZINC000432058199   -0.4500
     31 N31       -10.3096   -0.8631   61.1238 N.2     1  ZINC000432058199   -0.4500
     32 C32        -8.6442    0.6998   64.1155 C.ar    1  ZINC000432058199   -0.1200
     33 H33        -6.2819    1.0668   67.0457 H       1  ZINC000432058199    0.1000
     34 H34        -7.4990   -0.0480   66.3794 H       1  ZINC000432058199    0.0600
     35 H35        -6.2864    0.6906   65.3059 H       1  ZINC000432058199    0.0600
     36 H36        -9.5355    3.7648   65.2264 H       1  ZINC000432058199    0.1400
     37 H37       -11.0942    3.5728   63.3335 H       1  ZINC000432058199    0.1400
     38 H38       -11.0986    1.5487   61.9373 H       1  ZINC000432058199    0.1400
     39 H39        -8.6327   -3.3860   58.7508 H       1  ZINC000432058199    0.0900
     40 H40        -9.4042   -4.5639   59.8396 H       1  ZINC000432058199    0.0900
     41 H41        -9.9974   -4.3716   58.1724 H       1  ZINC000432058199    0.0900
     42 H42        -9.8129    0.4218   56.4132 H       1  ZINC000432058199    0.4500
     43 H43       -10.8610   -2.8641   55.6733 H       1  ZINC000432058199    0.1200
     44 H44       -11.8370   -4.9124   53.5421 H       1  ZINC000432058199    0.0700
     45 H45       -10.9782   -4.0940   52.2151 H       1  ZINC000432058199    0.0700
     46 H46       -10.1991   -4.2675   53.8060 H       1  ZINC000432058199    0.0700
     47 H47       -12.7282   -2.4487   51.8615 H       1  ZINC000432058199    0.1300
     48 H48       -14.9762   -0.3700   52.4234 H       1  ZINC000432058199    0.0700
     49 H49       -13.8341    0.9924   52.5104 H       1  ZINC000432058199    0.0700
     50 H50       -13.6217   -0.2693   51.2730 H       1  ZINC000432058199    0.0700
     51 H51       -13.2409    0.5725   54.8278 H       1  ZINC000432058199    0.1300
     52 H52        -7.9585   -0.1048   64.3362 H       1  ZINC000432058199    0.1400
@<TRIPOS>BOND
     1     1     2    1
     2     1    33    1
     3     1    34    1
     4     1    35    1
     5     2     3    1
     6     3    32   ar
     7     3     4   ar
     8     4     5   ar
     9     4    36    1
    10     5     6   ar
    11     5    37    1
    12     6     7   ar
    13     6    38    1
    14     7     8    1
    15     7    32   ar
    16     8    31    1
    17     8     9    2
    18     9    10    1
    19    10    11    1
    20    11    12    1
    21    11    31    2
    22    12    13    1
    23    12    14    1
    24    12    15    1
    25    14    39    1
    26    14    40    1
    27    14    41    1
    28    15    29   am
    29    15    16   am
    30    16    17    2
    31    16    18   am
    32    18    19    1
    33    18    42    1
    34    19    20    1
    35    19    21    1
    36    19    29    1
    37    21    28   ar
    38    21    22   ar
    39    22    23   ar
    40    22    43    1
    41    23    24    1
    42    23    25   ar
    43    24    44    1
    44    24    45    1
    45    24    46    1
    46    25    26   ar
    47    25    47    1
    48    26    27    1
    49    26    28   ar
    50    27    48    1
    51    27    49    1
    52    27    50    1
    53    28    51    1
    54    29    30    2
    55    32    52    1
@<TRIPOS>SUBSTRUCTURE
     1 ZINC000432058199        1 TEMP              0 ****  ****    0 ROOT


##########                                Name:    ZINC000482187991
##########                DOCK_Rotatable_Bonds:                  11
##########                         Heavy_Atoms:                  29
##########                    Molecular_Weight:             407.414
##########                DOCK_Rotatable_Bonds:                  11
##########                       Formal_Charge:           0.0299996
##########                     HBond_Acceptors:                   8
##########                        HBond_Donors:                   1
##########                         Heavy_Atoms:                  29
##########                          Grid_Score:          -35.189865
##########                     Grid_vdw_energy:          -34.814957
##########                      Grid_es_energy:           -0.374910
##########           Internal_energy_repulsive:           10.222418

@<TRIPOS>MOLECULE
ZINC000482187991
 52 53 1 0 0
SMALL
USER_CHARGES


@<TRIPOS>ATOM
      1 C1        -11.6346    0.2013   56.0386 C.3     1  ZINC000482187991    0.0200
      2 O2        -10.8416   -0.9123   55.6224 O.3     1  ZINC000482187991   -0.3000
      3 C3        -10.9033   -2.0346   56.3881 C.ar    1  ZINC000482187991    0.1400
      4 C4        -10.1022   -2.1511   57.5072 C.ar    1  ZINC000482187991   -0.1700
      5 C5        -10.1668   -3.3066   58.2950 C.ar    1  ZINC000482187991   -0.1000
      6 C6         -9.3169   -3.4341   59.4859 C.2     1  ZINC000482187991    0.4000
      7 O7         -8.2242   -3.9535   59.3983 O.2     1  ZINC000482187991   -0.4500
      8 C8         -9.8022   -2.9197   60.8166 C.3     1  ZINC000482187991   -0.1500
      9 C9         -8.9758   -1.6981   61.2233 C.3     1  ZINC000482187991   -0.1300
     10 C10        -9.8814   -0.6591   61.8327 C.2     1  ZINC000482187991    0.5200
     11 O11        -9.8201   -0.4229   63.0208 O.2     1  ZINC000482187991   -0.5200
     12 N12       -10.7597    0.0074   61.0577 N.am    1  ZINC000482187991   -0.7200
     13 C13       -11.6414    1.0162   61.6505 C.3     1  ZINC000482187991    0.1500
     14 H14       -11.0563    1.6827   62.2842 H       1  ZINC000482187991    0.1300
     15 C15       -12.6985    0.3341   62.4801 C.ar    1  ZINC000482187991   -0.1100
     16 C16       -13.2491   -0.8596   62.0527 C.ar    1  ZINC000482187991   -0.1000
     17 C17       -14.2189   -1.4852   62.8136 C.ar    1  ZINC000482187991   -0.1200
     18 C18       -14.6379   -0.9172   64.0022 C.ar    1  ZINC000482187991   -0.1100
     19 C19       -14.0867    0.2762   64.4301 C.ar    1  ZINC000482187991   -0.1200
     20 C20       -13.1138    0.8995   63.6713 C.ar    1  ZINC000482187991   -0.1000
     21 C21       -12.3099    1.8264   60.5381 C.3     1  ZINC000482187991    0.2500
     22 F22       -13.0343    0.9664   59.7058 F       1  ZINC000482187991   -0.1900
     23 F23       -13.1765    2.7680   61.1033 F       1  ZINC000482187991   -0.2000
     24 C24       -11.0441   -4.3402   57.9450 C.ar    1  ZINC000482187991   -0.1900
     25 C25       -11.8421   -4.2166   56.8245 C.ar    1  ZINC000482187991    0.1400
     26 O26       -12.6949   -5.2198   56.4840 O.3     1  ZINC000482187991   -0.3000
     27 C27       -14.0098   -5.1706   57.0412 C.3     1  ZINC000482187991    0.0200
     28 C28       -11.7789   -3.0629   56.0460 C.ar    1  ZINC000482187991    0.0600
     29 O29       -12.5656   -2.9447   54.9450 O.3     1  ZINC000482187991   -0.3100
     30 C30       -11.9369   -3.1317   53.6754 C.3     1  ZINC000482187991    0.0400
     31 H31       -11.4934    1.0282   55.3425 H       1  ZINC000482187991    0.1100
     32 H32       -12.6859   -0.0863   56.0525 H       1  ZINC000482187991    0.0600
     33 H33       -11.3294    0.5114   57.0380 H       1  ZINC000482187991    0.0600
     34 H34        -9.4265   -1.3519   57.7738 H       1  ZINC000482187991    0.1500
     35 H35       -10.8521   -2.6378   60.7363 H       1  ZINC000482187991    0.1100
     36 H36        -9.6922   -3.6999   61.5698 H       1  ZINC000482187991    0.1100
     37 H37        -8.2220   -1.9956   61.9523 H       1  ZINC000482187991    0.1000
     38 H38        -8.4856   -1.2816   60.3433 H       1  ZINC000482187991    0.1000
     39 H39       -10.8080   -0.1806   60.1073 H       1  ZINC000482187991    0.4100
     40 H40       -12.9218   -1.3034   61.1240 H       1  ZINC000482187991    0.1200
     41 H41       -14.6495   -2.4175   62.4794 H       1  ZINC000482187991    0.1300
     42 H42       -15.3960   -1.4056   64.5964 H       1  ZINC000482187991    0.1300
     43 H43       -14.4143    0.7200   65.3586 H       1  ZINC000482187991    0.1300
     44 H44       -12.6832    1.8318   64.0056 H       1  ZINC000482187991    0.1300
     45 H45       -11.5464    2.3400   59.9537 H       1  ZINC000482187991    0.1200
     46 H46       -11.0964   -5.2332   58.5502 H       1  ZINC000482187991    0.1500
     47 H47       -13.9448   -5.1980   58.1290 H       1  ZINC000482187991    0.0600
     48 H48       -14.5023   -4.2493   56.7298 H       1  ZINC000482187991    0.0600
     49 H49       -14.5856   -6.0269   56.6900 H       1  ZINC000482187991    0.1100
     50 H50       -11.1447   -2.3936   53.5499 H       1  ZINC000482187991    0.0500
     51 H51       -11.5111   -4.1339   53.6249 H       1  ZINC000482187991    0.0500
     52 H52       -12.6754   -3.0104   52.8829 H       1  ZINC000482187991    0.1000
@<TRIPOS>BOND
     1     1     2    1
     2     1    31    1
     3     1    32    1
     4     1    33    1
     5     2     3    1
     6     3    28   ar
     7     3     4   ar
     8     4     5   ar
     9     4    34    1
    10     5     6    1
    11     5    24   ar
    12     6     7    2
    13     6     8    1
    14     8     9    1
    15     8    35    1
    16     8    36    1
    17     9    10    1
    18     9    37    1
    19     9    38    1
    20    10    11    2
    21    10    12   am
    22    12    13    1
    23    12    39    1
    24    13    14    1
    25    13    15    1
    26    13    21    1
    27    15    20   ar
    28    15    16   ar
    29    16    17   ar
    30    16    40    1
    31    17    18   ar
    32    17    41    1
    33    18    19   ar
    34    18    42    1
    35    19    20   ar
    36    19    43    1
    37    20    44    1
    38    21    22    1
    39    21    23    1
    40    21    45    1
    41    24    25   ar
    42    24    46    1
    43    25    26    1
    44    25    28   ar
    45    26    27    1
    46    27    47    1
    47    27    48    1
    48    27    49    1
    49    28    29    1
    50    29    30    1
    51    30    50    1
    52    30    51    1
    53    30    52    1
@<TRIPOS>SUBSTRUCTURE
     1 ZINC000482187991        1 TEMP              0 ****  ****    0 ROOT


##########                                Name:    ZINC000546142192
##########                DOCK_Rotatable_Bonds:                  12
##########                         Heavy_Atoms:                  31
##########                    Molecular_Weight:             420.511
##########                DOCK_Rotatable_Bonds:                  12
##########                       Formal_Charge:          -0.0599997
##########                     HBond_Acceptors:                   7
##########                        HBond_Donors:                   2
##########                         Heavy_Atoms:                  31
##########                          Grid_Score:          -35.173058
##########                     Grid_vdw_energy:          -33.058399
##########                      Grid_es_energy:           -2.114660
##########           Internal_energy_repulsive:           14.678684

@<TRIPOS>MOLECULE
ZINC000546142192
 59 61 1 0 0
SMALL
USER_CHARGES


@<TRIPOS>ATOM
      1 C1         -9.6872    4.3103   49.2652 C.3     1  ZINC000546142192    0.0300
      2 O2         -8.6808    3.5049   49.9337 O.3     1  ZINC000546142192   -0.3600
      3 C3         -9.0125    2.9788   51.1232 C.2     1  ZINC000546142192    0.4600
      4 O4        -10.1682    2.7286   51.3719 O.2     1  ZINC000546142192   -0.5100
      5 C5         -7.9437    2.7001   52.1484 C.3     1  ZINC000546142192   -0.0800
      6 H6         -8.1311    1.7331   52.6150 H       1  ZINC000546142192    0.1100
      7 C7         -6.5748    2.6801   51.4653 C.3     1  ZINC000546142192   -0.1500
      8 C8         -7.9645    3.7948   53.2172 C.3     1  ZINC000546142192   -0.0600
      9 C9         -8.1788    3.1701   54.5718 C.ar    1  ZINC000546142192   -0.1000
     10 C10        -7.0908    2.8003   55.3410 C.ar    1  ZINC000546142192   -0.0900
     11 C11        -7.2838    2.2279   56.5830 C.ar    1  ZINC000546142192   -0.1200
     12 C12        -8.5722    2.0240   57.0592 C.ar    1  ZINC000546142192    0.1600
     13 N13        -8.7713    1.4448   58.3175 N.am    1  ZINC000546142192   -0.6900
     14 C14        -9.0371    0.1274   58.4184 C.2     1  ZINC000546142192    0.7100
     15 O15        -9.1040   -0.5578   57.4162 O.2     1  ZINC000546142192   -0.5700
     16 N16        -9.2288   -0.4306   59.6302 N.am    1  ZINC000546142192   -0.7400
     17 C17        -9.5194   -1.8622   59.7397 C.3     1  ZINC000546142192    0.2300
     18 C18       -11.0006   -2.0607   59.9343 C.2     1  ZINC000546142192    0.1800
     19 N19       -11.6545   -1.8649   61.0465 N.2     1  ZINC000546142192   -0.4700
     20 C20       -12.9527   -2.1395   60.8507 C.2     1  ZINC000546142192   -0.0300
     21 C21       -13.1092   -2.5200   59.5684 C.2     1  ZINC000546142192   -0.0400
     22 N22       -11.8720   -2.4650   58.9852 N.pl3   1  ZINC000546142192   -0.4500
     23 C23       -11.5516   -2.7921   57.5935 C.3     1  ZINC000546142192    0.1100
     24 C24       -12.8239   -2.7203   56.7469 C.3     1  ZINC000546142192   -0.0900
     25 C25       -12.4604   -2.7963   55.2863 C.ar    1  ZINC000546142192   -0.0900
     26 C26       -11.4240   -3.6127   54.8736 C.ar    1  ZINC000546142192   -0.1100
     27 C27       -11.0906   -3.6824   53.5338 C.ar    1  ZINC000546142192   -0.1200
     28 C28       -11.7939   -2.9360   52.6068 C.ar    1  ZINC000546142192   -0.1200
     29 C29       -12.8309   -2.1204   53.0195 C.ar    1  ZINC000546142192   -0.1200
     30 C30       -13.1670   -2.0539   54.3587 C.ar    1  ZINC000546142192   -0.1100
     31 C31        -9.6628    2.3966   56.2844 C.ar    1  ZINC000546142192   -0.1500
     32 C32        -9.4630    2.9732   55.0454 C.ar    1  ZINC000546142192   -0.0900
     33 H33        -9.9522    5.1582   49.8968 H       1  ZINC000546142192    0.0600
     34 H34        -9.2910    4.6734   48.3170 H       1  ZINC000546142192    0.1000
     35 H35       -10.5738    3.7039   49.0803 H       1  ZINC000546142192    0.0600
     36 H36        -6.3873    3.6472   50.9987 H       1  ZINC000546142192    0.0600
     37 H37        -5.8017    2.4787   52.2069 H       1  ZINC000546142192    0.0800
     38 H38        -6.5600    1.9004   50.7039 H       1  ZINC000546142192    0.0700
     39 H39        -7.0141    4.3283   53.2094 H       1  ZINC000546142192    0.0800
     40 H40        -8.7748    4.4928   53.0067 H       1  ZINC000546142192    0.0800
     41 H41        -6.0890    2.9588   54.9699 H       1  ZINC000546142192    0.1300
     42 H42        -6.4337    1.9390   57.1830 H       1  ZINC000546142192    0.1400
     43 H43        -8.7180    1.9915   59.1170 H       1  ZINC000546142192    0.4100
     44 H44        -9.1742    0.1158   60.4298 H       1  ZINC000546142192    0.4000
     45 H45        -9.2018   -2.3683   58.8280 H       1  ZINC000546142192    0.0800
     46 H46        -8.9821   -2.2779   60.5921 H       1  ZINC000546142192    0.1000
     47 H47       -13.7353   -2.0680   61.5915 H       1  ZINC000546142192    0.1700
     48 H48       -14.0337   -2.8089   59.0908 H       1  ZINC000546142192    0.1800
     49 H49       -10.8204   -2.0794   57.2119 H       1  ZINC000546142192    0.1000
     50 H50       -11.1379   -3.7992   57.5430 H       1  ZINC000546142192    0.0900
     51 H51       -13.4780   -3.5540   57.0024 H       1  ZINC000546142192    0.0800
     52 H52       -13.3393   -1.7803   56.9446 H       1  ZINC000546142192    0.0800
     53 H53       -10.8746   -4.1957   55.5978 H       1  ZINC000546142192    0.1200
     54 H54       -10.2805   -4.3197   53.2115 H       1  ZINC000546142192    0.1200
     55 H55       -11.5329   -2.9900   51.5602 H       1  ZINC000546142192    0.1200
     56 H56       -13.3801   -1.5370   52.2953 H       1  ZINC000546142192    0.1200
     57 H57       -13.9772   -1.4167   54.6812 H       1  ZINC000546142192    0.1200
     58 H58       -10.6661    2.2393   56.6521 H       1  ZINC000546142192    0.1300
     59 H59       -10.3108    3.2635   54.4425 H       1  ZINC000546142192    0.1300
@<TRIPOS>BOND
     1     1     2    1
     2     1    33    1
     3     1    34    1
     4     1    35    1
     5     2     3    1
     6     3     4    2
     7     3     5    1
     8     5     6    1
     9     5     7    1
    10     5     8    1
    11     7    36    1
    12     7    37    1
    13     7    38    1
    14     8     9    1
    15     8    39    1
    16     8    40    1
    17     9    32   ar
    18     9    10   ar
    19    10    11   ar
    20    10    41    1
    21    11    12   ar
    22    11    42    1
    23    12    13    1
    24    12    31   ar
    25    13    14   am
    26    13    43    1
    27    14    15    2
    28    14    16   am
    29    16    17    1
    30    16    44    1
    31    17    18    1
    32    17    45    1
    33    17    46    1
    34    18    22    1
    35    18    19    2
    36    19    20    1
    37    20    21    2
    38    20    47    1
    39    21    22    1
    40    21    48    1
    41    22    23    1
    42    23    24    1
    43    23    49    1
    44    23    50    1
    45    24    25    1
    46    24    51    1
    47    24    52    1
    48    25    30   ar
    49    25    26   ar
    50    26    27   ar
    51    26    53    1
    52    27    28   ar
    53    27    54    1
    54    28    29   ar
    55    28    55    1
    56    29    30   ar
    57    29    56    1
    58    30    57    1
    59    31    32   ar
    60    31    58    1
    61    32    59    1
@<TRIPOS>SUBSTRUCTURE
     1 ZINC000546142192        1 TEMP              0 ****  ****    0 ROOT


##########                                Name:    ZINC000624498741
##########                DOCK_Rotatable_Bonds:                   7
##########                         Heavy_Atoms:                  27
##########                    Molecular_Weight:             379.339
##########                DOCK_Rotatable_Bonds:                   7
##########                       Formal_Charge:           0.0300003
##########                     HBond_Acceptors:                   9
##########                        HBond_Donors:                   0
##########                         Heavy_Atoms:                  27
##########                          Grid_Score:          -35.163925
##########                     Grid_vdw_energy:          -33.756672
##########                      Grid_es_energy:           -1.407255
##########           Internal_energy_repulsive:            9.199244

@<TRIPOS>MOLECULE
ZINC000624498741
 43 45 1 0 0
SMALL
USER_CHARGES


@<TRIPOS>ATOM
      1 C1        -11.3822   -2.5657   52.1385 C.3     1  ZINC000624498741   -0.1100
      2 C2        -12.0650   -3.0250   53.4011 C.ar    1  ZINC000624498741   -0.0900
      3 C3        -11.3157   -3.3360   54.5141 C.ar    1  ZINC000624498741   -0.0400
      4 C4        -11.9496   -3.7613   55.6842 C.ar    1  ZINC000624498741   -0.0500
      5 C5        -11.1501   -4.0953   56.8798 C.2     1  ZINC000624498741    0.2300
      6 N6        -10.4736   -3.2502   57.6388 N.2     1  ZINC000624498741   -0.4700
      7 C7         -9.9102   -4.0006   58.5983 C.2     1  ZINC000624498741    0.1800
      8 C8         -9.0333   -3.5019   59.7177 C.3     1  ZINC000624498741   -0.0300
      9 C9         -9.8728   -2.6747   60.6932 C.3     1  ZINC000624498741   -0.1300
     10 C10        -8.9924   -1.6062   61.3447 C.3     1  ZINC000624498741    0.0900
     11 N11        -9.7341   -0.3455   61.4265 N.am    1  ZINC000624498741   -0.5000
     12 C12       -10.2702    0.0420   62.6121 C.2     1  ZINC000624498741    0.1300
     13 C13       -10.9599    1.2023   62.7123 C.2     1  ZINC000624498741   -0.2300
     14 C14       -11.1258    2.0176   61.5839 C.2     1  ZINC000624498741   -0.0200
     15 C15       -10.5861    1.6267   60.3938 C.2     1  ZINC000624498741   -0.2400
     16 C16        -9.8716    0.4185   60.3262 C.2     1  ZINC000624498741    0.5100
     17 O17        -9.3834    0.0568   59.2676 O.2     1  ZINC000624498741   -0.5500
     18 N18       -10.2584   -5.2358   58.3877 N.2     1  ZINC000624498741   -0.3700
     19 O19       -10.9733   -5.3151   57.4113 O.3     1  ZINC000624498741    0.0900
     20 C20       -13.3417   -3.8693   55.7201 C.ar    1  ZINC000624498741   -0.0200
     21 C21       -14.0840   -3.5563   54.6024 C.ar    1  ZINC000624498741   -0.1900
     22 C22       -13.4501   -3.1287   53.4425 C.ar    1  ZINC000624498741    0.1300
     23 O23       -14.1853   -2.8212   52.3432 O.3     1  ZINC000624498741   -0.3000
     24 C24       -14.8757   -1.5701   52.3535 C.3     1  ZINC000624498741    0.6000
     25 F25       -15.5935   -1.4238   51.1616 F       1  ZINC000624498741   -0.1600
     26 F26       -15.7595   -1.5341   53.4374 F       1  ZINC000624498741   -0.1300
     27 F27       -13.9503   -0.5277   52.4715 F       1  ZINC000624498741   -0.1600
     28 H28       -11.2810   -1.4805   52.1544 H       1  ZINC000624498741    0.0800
     29 H29       -10.3944   -3.0217   52.0731 H       1  ZINC000624498741    0.0800
     30 H30       -11.9775   -2.8625   51.2750 H       1  ZINC000624498741    0.0800
     31 H31       -10.2395   -3.2516   54.4823 H       1  ZINC000624498741    0.1500
     32 H32        -8.5972   -4.3513   60.2435 H       1  ZINC000624498741    0.1000
     33 H33        -8.2371   -2.8813   59.3067 H       1  ZINC000624498741    0.1000
     34 H34       -10.6885   -2.1936   60.1533 H       1  ZINC000624498741    0.0800
     35 H35       -10.2824   -3.3274   61.4642 H       1  ZINC000624498741    0.0800
     36 H36        -8.7120   -1.9285   62.3475 H       1  ZINC000624498741    0.1100
     37 H37        -8.0937   -1.4608   60.7452 H       1  ZINC000624498741    0.1000
     38 H38       -10.1453   -0.5823   63.4844 H       1  ZINC000624498741    0.1600
     39 H39       -11.3824    1.4997   63.6607 H       1  ZINC000624498741    0.1500
     40 H40       -11.6751    2.9446   61.6561 H       1  ZINC000624498741    0.1400
     41 H41       -10.7032    2.2414   59.5135 H       1  ZINC000624498741    0.1500
     42 H42       -13.8354   -4.1981   56.6226 H       1  ZINC000624498741    0.1500
     43 H43       -15.1605   -3.6398   54.6292 H       1  ZINC000624498741    0.1500
@<TRIPOS>BOND
     1     1     2    1
     2     1    28    1
     3     1    29    1
     4     1    30    1
     5     2    22   ar
     6     2     3   ar
     7     3     4   ar
     8     3    31    1
     9     4     5    1
    10     4    20   ar
    11     5    19    1
    12     5     6    2
    13     6     7    1
    14     7     8    1
    15     7    18    2
    16     8     9    1
    17     8    32    1
    18     8    33    1
    19     9    10    1
    20     9    34    1
    21     9    35    1
    22    10    11    1
    23    10    36    1
    24    10    37    1
    25    11    16   am
    26    11    12    1
    27    12    13    2
    28    12    38    1
    29    13    14    1
    30    13    39    1
    31    14    15    2
    32    14    40    1
    33    15    16    1
    34    15    41    1
    35    16    17    2
    36    18    19    1
    37    20    21   ar
    38    20    42    1
    39    21    22   ar
    40    21    43    1
    41    22    23    1
    42    23    24    1
    43    24    25    1
    44    24    26    1
    45    24    27    1
@<TRIPOS>SUBSTRUCTURE
     1 ZINC000624498741        1 TEMP              0 ****  ****    0 ROOT


##########                                Name:    ZINC001109848453
##########                DOCK_Rotatable_Bonds:                   8
##########                         Heavy_Atoms:                  24
##########                    Molecular_Weight:             328.337
##########                DOCK_Rotatable_Bonds:                   8
##########                       Formal_Charge:          0.00999966
##########                     HBond_Acceptors:                  11
##########                        HBond_Donors:                   2
##########                         Heavy_Atoms:                  24
##########                          Grid_Score:          -35.153244
##########                     Grid_vdw_energy:          -32.724537
##########                      Grid_es_energy:           -2.428705
##########           Internal_energy_repulsive:            9.172424

@<TRIPOS>MOLECULE
ZINC001109848453
 40 43 1 0 0
SMALL
USER_CHARGES


@<TRIPOS>ATOM
      1 O1         -8.2207    2.1619   52.9038 O.2     1  ZINC001109848453   -0.5000
      2 C2         -8.1791    0.9602   53.0625 C.2     1  ZINC001109848453    0.5000
      3 C3         -7.5010    0.0879   52.0377 C.3     1  ZINC001109848453    0.1100
      4 N4         -6.4319    0.8452   51.3823 N.pl3   1  ZINC001109848453   -0.3700
      5 C5         -5.6959    1.8320   51.9223 C.2     1  ZINC001109848453    0.2600
      6 N6         -4.8491    2.2493   51.0164 N.2     1  ZINC001109848453   -0.5400
      7 C7         -5.0136    1.5559   49.8906 C.2     1  ZINC001109848453    0.2000
      8 N8         -5.9682    0.6805   50.0669 N.2     1  ZINC001109848453   -0.2900
      9 N9         -8.7343    0.4054   54.1582 N.am    1  ZINC001109848453   -0.7300
     10 C10        -9.3934    1.2534   55.1545 C.3     1  ZINC001109848453    0.1700
     11 H11        -9.0068    2.2699   55.0795 H       1  ZINC001109848453    0.1000
     12 C12        -9.1159    0.7043   56.5554 C.3     1  ZINC001109848453    0.1200
     13 N13        -9.9589   -0.4696   56.7954 N.pl3   1  ZINC001109848453   -0.6800
     14 C14        -9.6805   -1.3172   57.8550 C.2     1  ZINC001109848453    0.4900
     15 N15        -9.0699   -0.8594   58.9307 N.2     1  ZINC001109848453   -0.5300
     16 C16        -8.7945   -1.6631   59.9610 C.2     1  ZINC001109848453    0.1400
     17 C17        -9.1281   -2.9701   59.9429 C.2     1  ZINC001109848453   -0.0500
     18 N18        -9.7627   -3.4979   58.8530 N.pl3   1  ZINC001109848453   -0.1800
     19 N19       -10.1949   -4.6698   58.5478 N.2     1  ZINC001109848453   -0.1000
     20 N20       -10.7272   -4.6346   57.3755 N.2     1  ZINC001109848453   -0.0400
     21 N21       -10.6531   -3.4403   56.8927 N.2     1  ZINC001109848453   -0.2600
     22 C22       -10.0538   -2.6805   57.7957 C.2     1  ZINC001109848453    0.1000
     23 C23       -10.9020    1.2615   54.8996 C.3     1  ZINC001109848453   -0.1800
     24 C24       -11.7600    2.1853   55.7665 C.3     1  ZINC001109848453   -0.1700
     25 C25       -11.5098    2.5296   54.2968 C.3     1  ZINC001109848453   -0.1700
     26 H26        -7.0771   -0.7879   52.5292 H       1  ZINC001109848453    0.1300
     27 H27        -8.2298   -0.2309   51.2925 H       1  ZINC001109848453    0.1200
     28 H28        -5.7879    2.2143   52.9282 H       1  ZINC001109848453    0.2200
     29 H29        -4.4472    1.6922   48.9811 H       1  ZINC001109848453    0.2200
     30 H30        -8.6975   -0.5553   54.2870 H       1  ZINC001109848453    0.4000
     31 H31        -8.0666    0.4201   56.6330 H       1  ZINC001109848453    0.1000
     32 H32        -9.3406    1.4708   57.2971 H       1  ZINC001109848453    0.0900
     33 H33       -10.7120   -0.6534   56.2124 H       1  ZINC001109848453    0.4200
     34 H34        -8.2935   -1.2579   60.8278 H       1  ZINC001109848453    0.2000
     35 H35        -8.8938   -3.5994   60.7887 H       1  ZINC001109848453    0.1900
     36 H36       -11.3336    0.3059   54.6018 H       1  ZINC001109848453    0.1100
     37 H37       -12.7563    1.8374   56.0393 H       1  ZINC001109848453    0.1000
     38 H38       -11.2498    2.7872   56.5183 H       1  ZINC001109848453    0.1000
     39 H39       -10.8349    3.3582   54.0819 H       1  ZINC001109848453    0.1200
     40 H40       -12.3415    2.4084   53.6028 H       1  ZINC001109848453    0.0900
@<TRIPOS>BOND
     1     1     2    2
     2     2     3    1
     3     2     9   am
     4     3     4    1
     5     3    26    1
     6     3    27    1
     7     4     8    1
     8     4     5    1
     9     5     6    2
    10     5    28    1
    11     6     7    1
    12     7     8    2
    13     7    29    1
    14     9    10    1
    15     9    30    1
    16    10    11    1
    17    10    12    1
    18    10    23    1
    19    12    13    1
    20    12    31    1
    21    12    32    1
    22    13    14    1
    23    13    33    1
    24    14    22    1
    25    14    15    2
    26    15    16    1
    27    16    17    2
    28    16    34    1
    29    17    18    1
    30    17    35    1
    31    18    22    1
    32    18    19    1
    33    19    20    2
    34    20    21    1
    35    21    22    2
    36    23    25    1
    37    23    24    1
    38    23    36    1
    39    24    25    1
    40    24    37    1
    41    24    38    1
    42    25    39    1
    43    25    40    1
@<TRIPOS>SUBSTRUCTURE
     1 ZINC001109848453        1 TEMP              0 ****  ****    0 ROOT


##########                                Name:    ZINC001386869844
##########                DOCK_Rotatable_Bonds:                   9
##########                         Heavy_Atoms:                  25
##########                    Molecular_Weight:             345.485
##########                DOCK_Rotatable_Bonds:                   9
##########                       Formal_Charge:          -0.0300003
##########                     HBond_Acceptors:                   5
##########                        HBond_Donors:                   2
##########                         Heavy_Atoms:                  25
##########                          Grid_Score:          -35.137047
##########                     Grid_vdw_energy:          -33.474972
##########                      Grid_es_energy:           -1.662077
##########           Internal_energy_repulsive:           33.941254

@<TRIPOS>MOLECULE
ZINC001386869844
 56 58 1 0 0
SMALL
USER_CHARGES


@<TRIPOS>ATOM
      1 C1         -9.7757   -0.4485   59.0710 C.3     1  ZINC001386869844    0.0600
      2 N2         -9.7160   -1.8757   59.3966 N.am    1  ZINC001386869844   -0.6200
      3 C3         -9.6542   -2.8699   58.3224 C.3     1  ZINC001386869844    0.1100
      4 C4        -11.0585   -3.4106   58.0465 C.3     1  ZINC001386869844    0.1000
      5 N5        -11.7997   -2.4489   57.2266 N.am    1  ZINC001386869844   -0.7300
      6 C6        -12.5329   -2.8791   56.1807 C.2     1  ZINC001386869844    0.5200
      7 O7        -12.5751   -4.0617   55.9153 O.2     1  ZINC001386869844   -0.5300
      8 C8        -13.2953   -1.8898   55.3373 C.3     1  ZINC001386869844   -0.1300
      9 C9        -12.8048   -1.9687   53.8903 C.3     1  ZINC001386869844   -0.0100
     10 C10       -13.4112   -3.1991   53.2126 C.3     1  ZINC001386869844   -0.1500
     11 C11       -13.2337   -0.7081   53.1369 C.3     1  ZINC001386869844   -0.1600
     12 C12       -11.2787   -2.0779   53.8744 C.3     1  ZINC001386869844   -0.1500
     13 C13       -10.4930   -0.9085   53.2777 C.3     1  ZINC001386869844   -0.1900
     14 C14       -10.5956   -2.2310   52.5139 C.3     1  ZINC001386869844   -0.1800
     15 C15        -9.7179   -2.2738   60.6841 C.2     1  ZINC001386869844    0.5900
     16 O16        -9.6683   -3.4593   60.9545 O.2     1  ZINC001386869844   -0.5200
     17 C17        -9.7799   -1.2782   61.7596 C.2     1  ZINC001386869844   -0.0600
     18 C18       -10.8828   -0.5267   62.1124 C.2     1  ZINC001386869844   -0.0900
     19 C19       -10.4986    0.2843   63.1771 C.2     1  ZINC001386869844   -0.1700
     20 C20        -9.1933    0.0242   63.4547 C.2     1  ZINC001386869844    0.0500
     21 C21        -8.4126    0.7125   64.5490 C.3     1  ZINC001386869844   -0.0600
     22 C22        -9.1740    1.9765   64.9654 C.3     1  ZINC001386869844   -0.1100
     23 C23       -10.6375    1.6236   65.2442 C.3     1  ZINC001386869844   -0.1200
     24 C24       -11.3422    1.2867   63.9245 C.3     1  ZINC001386869844   -0.0500
     25 N25        -8.7495   -0.9279   62.6048 N.pl3   1  ZINC001386869844   -0.5400
     26 H26       -10.8137   -0.1160   59.0840 H       1  ZINC001386869844    0.0600
     27 H27        -9.2041    0.1163   59.8075 H       1  ZINC001386869844    0.0800
     28 H28        -9.3539   -0.2839   58.0796 H       1  ZINC001386869844    0.0900
     29 H29        -9.0018   -3.6897   58.6233 H       1  ZINC001386869844    0.1000
     30 H30        -9.2598   -2.4047   57.4190 H       1  ZINC001386869844    0.0900
     31 H31       -11.5815   -3.5620   58.9907 H       1  ZINC001386869844    0.0700
     32 H32       -10.9847   -4.3597   57.5157 H       1  ZINC001386869844    0.0700
     33 H33       -11.7626   -1.5026   57.4364 H       1  ZINC001386869844    0.4000
     34 H34       -14.3589   -2.1249   55.3738 H       1  ZINC001386869844    0.0900
     35 H35       -13.1323   -0.8830   55.7218 H       1  ZINC001386869844    0.0900
     36 H36       -14.4983   -3.1214   53.2239 H       1  ZINC001386869844    0.0800
     37 H37       -13.0616   -3.2553   52.1816 H       1  ZINC001386869844    0.0500
     38 H38       -13.1055   -4.0973   53.7493 H       1  ZINC001386869844    0.0500
     39 H39       -12.8017    0.1684   53.6196 H       1  ZINC001386869844    0.0500
     40 H40       -12.8842   -0.7643   52.1059 H       1  ZINC001386869844    0.0500
     41 H41       -14.3209   -0.6303   53.1482 H       1  ZINC001386869844    0.0800
     42 H42       -10.8360   -2.6015   54.7216 H       1  ZINC001386869844    0.1000
     43 H43       -11.0632   -0.0613   52.8965 H       1  ZINC001386869844    0.1000
     44 H44        -9.5332   -0.6630   53.7323 H       1  ZINC001386869844    0.0900
     45 H45        -9.7031   -2.8551   52.4663 H       1  ZINC001386869844    0.0900
     46 H46       -11.2333   -2.2540   51.6303 H       1  ZINC001386869844    0.0900
     47 H47       -11.8583   -0.5609   61.6501 H       1  ZINC001386869844    0.1500
     48 H48        -8.3138    0.0449   65.4050 H       1  ZINC001386869844    0.0800
     49 H49        -7.4240    0.9847   64.1792 H       1  ZINC001386869844    0.0800
     50 H50        -8.7226    2.3922   65.8662 H       1  ZINC001386869844    0.0700
     51 H51        -9.1243    2.7115   64.1621 H       1  ZINC001386869844    0.0700
     52 H52       -10.6831    0.7624   65.9107 H       1  ZINC001386869844    0.0600
     53 H53       -11.1329    2.4733   65.7142 H       1  ZINC001386869844    0.0700
     54 H54       -11.4536    2.1912   63.3265 H       1  ZINC001386869844    0.0700
     55 H55       -12.3235    0.8594   64.1309 H       1  ZINC001386869844    0.0700
     56 H56        -7.8542   -1.3010   62.5906 H       1  ZINC001386869844    0.4200
@<TRIPOS>BOND
     1     1     2    1
     2     1    26    1
     3     1    27    1
     4     1    28    1
     5     2     3    1
     6     2    15   am
     7     3     4    1
     8     3    29    1
     9     3    30    1
    10     4     5    1
    11     4    31    1
    12     4    32    1
    13     5     6   am
    14     5    33    1
    15     6     7    2
    16     6     8    1
    17     8     9    1
    18     8    34    1
    19     8    35    1
    20     9    10    1
    21     9    11    1
    22     9    12    1
    23    10    36    1
    24    10    37    1
    25    10    38    1
    26    11    39    1
    27    11    40    1
    28    11    41    1
    29    12    14    1
    30    12    13    1
    31    12    42    1
    32    13    14    1
    33    13    43    1
    34    13    44    1
    35    14    45    1
    36    14    46    1
    37    15    16    2
    38    15    17    1
    39    17    25    1
    40    17    18    2
    41    18    19    1
    42    18    47    1
    43    19    24    1
    44    19    20    2
    45    20    21    1
    46    20    25    1
    47    21    22    1
    48    21    48    1
    49    21    49    1
    50    22    23    1
    51    22    50    1
    52    22    51    1
    53    23    24    1
    54    23    52    1
    55    23    53    1
    56    24    54    1
    57    24    55    1
    58    25    56    1
@<TRIPOS>SUBSTRUCTURE
     1 ZINC001386869844        1 TEMP              0 ****  ****    0 ROOT


##########                                Name:    ZINC000963156778
##########                DOCK_Rotatable_Bonds:                   6
##########                         Heavy_Atoms:                  24
##########                    Molecular_Weight:             349.414
##########                DOCK_Rotatable_Bonds:                   6
##########                       Formal_Charge:         -0.00999984
##########                     HBond_Acceptors:                   9
##########                        HBond_Donors:                   2
##########                         Heavy_Atoms:                  24
##########                          Grid_Score:          -35.122952
##########                     Grid_vdw_energy:          -33.321266
##########                      Grid_es_energy:           -1.801687
##########           Internal_energy_repulsive:            7.334083

@<TRIPOS>MOLECULE
ZINC000963156778
 43 46 1 0 0
SMALL
USER_CHARGES


@<TRIPOS>ATOM
      1 C1        -14.3996   -3.8519   55.1054 C.3     1  ZINC000963156778   -0.0800
      2 C2        -13.0300   -3.7131   54.4921 C.2     1  ZINC000963156778    0.0300
      3 C3        -11.8770   -3.8572   55.1859 C.2     1  ZINC000963156778   -0.2600
      4 C4        -11.7102   -4.1728   56.6500 C.3     1  ZINC000963156778    0.1300
      5 N5        -10.6212   -3.3582   57.2056 N.3     1  ZINC000963156778   -0.5000
      6 C6        -10.4656   -3.6001   58.6630 C.3     1  ZINC000963156778    0.0600
      7 C7         -9.7198   -2.3539   59.1866 C.3     1  ZINC000963156778   -0.1700
      8 H8         -8.7185   -2.4981   59.5924 H       1  ZINC000963156778    0.1200
      9 C9        -10.0296   -1.2420   58.1634 C.3     1  ZINC000963156778   -0.1700
     10 H10        -9.2620   -0.5493   57.8181 H       1  ZINC000963156778    0.1200
     11 C11       -10.9366   -1.9098   57.1075 C.3     1  ZINC000963156778    0.0600
     12 C12       -10.5520   -1.1533   59.6414 C.3     1  ZINC000963156778    0.1200
     13 H13       -11.6179   -1.3093   59.8077 H       1  ZINC000963156778    0.1400
     14 N14        -9.9114   -0.1775   60.5266 N.am    1  ZINC000963156778   -0.7000
     15 C15       -10.6144    0.3868   61.5285 C.2     1  ZINC000963156778    0.5100
     16 O16       -11.7769    0.0856   61.6982 O.2     1  ZINC000963156778   -0.5000
     17 C17        -9.9559    1.3920   62.4380 C.3     1  ZINC000963156778   -0.1300
     18 C18        -9.8766    0.8219   63.8556 C.3     1  ZINC000963156778   -0.1100
     19 H19       -10.7839    0.2677   64.0963 H       1  ZINC000963156778    0.1300
     20 C20        -9.6410    1.9491   64.8815 C.3     1  ZINC000963156778   -0.1600
     21 C21        -8.3110    1.5879   65.5060 C.2     1  ZINC000963156778    0.5300
     22 O22        -7.7480    2.2200   66.3739 O.2     1  ZINC000963156778   -0.4800
     23 N23        -7.8546    0.4595   64.9486 N.am    1  ZINC000963156778   -0.6900
     24 C24        -8.6573   -0.0610   64.0071 C.2     1  ZINC000963156778    0.5200
     25 O25        -8.4373   -1.0741   63.3788 O.2     1  ZINC000963156778   -0.4500
     26 S26       -10.6446   -3.5981   54.0126 S.3     1  ZINC000963156778    0.4500
     27 N27       -11.6165   -3.3440   52.8125 N.2     1  ZINC000963156778   -0.2900
     28 N28       -12.8215   -3.4434   53.2195 N.2     1  ZINC000963156778   -0.2400
     29 H29       -14.7229   -4.8909   55.0409 H       1  ZINC000963156778    0.0900
     30 H30       -14.3620   -3.5475   56.1513 H       1  ZINC000963156778    0.0800
     31 H31       -15.1046   -3.2180   54.5675 H       1  ZINC000963156778    0.0800
     32 H32       -12.6372   -3.9489   57.1780 H       1  ZINC000963156778    0.1000
     33 H33       -11.4705   -5.2294   56.7689 H       1  ZINC000963156778    0.0700
     34 H34       -11.4417   -3.6874   59.1402 H       1  ZINC000963156778    0.0600
     35 H35        -9.8741   -4.4986   58.8382 H       1  ZINC000963156778    0.0800
     36 H36       -10.6995   -1.5357   56.1116 H       1  ZINC000963156778    0.1000
     37 H37       -11.9863   -1.7326   57.3414 H       1  ZINC000963156778    0.0500
     38 H38        -8.9814    0.0625   60.3916 H       1  ZINC000963156778    0.4000
     39 H39        -8.9505    1.6059   62.0756 H       1  ZINC000963156778    0.1000
     40 H40       -10.5418    2.3112   62.4483 H       1  ZINC000963156778    0.1200
     41 H41        -9.5803    2.9160   64.3819 H       1  ZINC000963156778    0.1200
     42 H42       -10.4296    1.9539   65.6341 H       1  ZINC000963156778    0.1300
     43 H43        -7.0133    0.0504   65.2048 H       1  ZINC000963156778    0.4200
@<TRIPOS>BOND
     1     1     2    1
     2     1    29    1
     3     1    30    1
     4     1    31    1
     5     2    28    1
     6     2     3    2
     7     3     4    1
     8     3    26    1
     9     4     5    1
    10     4    32    1
    11     4    33    1
    12     5    11    1
    13     5     6    1
    14     6     7    1
    15     6    34    1
    16     6    35    1
    17     7     8    1
    18     7    12    1
    19     7     9    1
    20     9    10    1
    21     9    11    1
    22     9    12    1
    23    11    36    1
    24    11    37    1
    25    12    13    1
    26    12    14    1
    27    14    15   am
    28    14    38    1
    29    15    16    2
    30    15    17    1
    31    17    18    1
    32    17    39    1
    33    17    40    1
    34    18    19    1
    35    18    24    1
    36    18    20    1
    37    20    21    1
    38    20    41    1
    39    20    42    1
    40    21    22    2
    41    21    23   am
    42    23    24   am
    43    23    43    1
    44    24    25    2
    45    26    27    1
    46    27    28    2
@<TRIPOS>SUBSTRUCTURE
     1 ZINC000963156778        1 TEMP              0 ****  ****    0 ROOT


##########                                Name:    ZINC000492313853
##########                DOCK_Rotatable_Bonds:                   8
##########                         Heavy_Atoms:                  30
##########                    Molecular_Weight:             418.422
##########                DOCK_Rotatable_Bonds:                   8
##########                       Formal_Charge:          -0.0100008
##########                     HBond_Acceptors:                  10
##########                        HBond_Donors:                   2
##########                         Heavy_Atoms:                  30
##########                          Grid_Score:          -35.116882
##########                     Grid_vdw_energy:          -34.654072
##########                      Grid_es_energy:           -0.462811
##########           Internal_energy_repulsive:            9.533683

@<TRIPOS>MOLECULE
ZINC000492313853
 51 53 1 0 0
SMALL
USER_CHARGES


@<TRIPOS>ATOM
      1 C1         -7.5133   -1.2629   51.5105 C.3     1  ZINC000492313853    0.0900
      2 N2         -8.4770   -0.3834   52.1770 N.pl3   1  ZINC000492313853   -0.6200
      3 C3         -8.0825    0.9719   52.5690 C.3     1  ZINC000492313853    0.1000
      4 C4         -9.7657   -0.8349   52.4372 C.ar    1  ZINC000492313853    0.4100
      5 C5        -10.0059   -2.1993   52.5618 C.ar    1  ZINC000492313853   -0.2400
      6 C6        -11.2931   -2.6347   52.8213 C.ar    1  ZINC000492313853   -0.0100
      7 C7        -12.3002   -1.6875   52.9480 C.ar    1  ZINC000492313853   -0.2300
      8 C8        -13.7169   -2.1160   53.2313 C.3     1  ZINC000492313853    0.2000
      9 N9        -13.7223   -3.0960   54.3202 N.am    1  ZINC000492313853   -0.7300
     10 C10       -13.5063   -2.6951   55.5887 C.2     1  ZINC000492313853    0.7100
     11 O11       -13.3084   -1.5198   55.8295 O.2     1  ZINC000492313853   -0.5600
     12 N12       -13.5097   -3.5969   56.5903 N.am    1  ZINC000492313853   -0.6600
     13 C13       -13.2844   -3.1822   57.9031 C.2     1  ZINC000492313853    0.3300
     14 C14       -12.1143   -2.7056   58.4035 C.2     1  ZINC000492313853   -0.2600
     15 C15       -12.3189   -2.4047   59.7630 C.2     1  ZINC000492313853    0.1200
     16 C16       -11.3026   -1.8584   60.6964 C.ar    1  ZINC000492313853   -0.0100
     17 C17       -10.0667   -2.4871   60.8304 C.ar    1  ZINC000492313853   -0.0600
     18 C18        -9.1248   -1.9744   61.6997 C.ar    1  ZINC000492313853   -0.1200
     19 C19        -9.4063   -0.8386   62.4368 C.ar    1  ZINC000492313853   -0.0700
     20 C20       -10.6320   -0.2101   62.3077 C.ar    1  ZINC000492313853   -0.1900
     21 C21       -10.9314    1.0273   63.1138 C.3     1  ZINC000492313853    0.5100
     22 F22       -12.2289    0.9445   63.6308 F       1  ZINC000492313853   -0.1800
     23 F23       -10.0159    1.1310   64.1665 F       1  ZINC000492313853   -0.1800
     24 F24       -10.8278    2.1553   62.2927 F       1  ZINC000492313853   -0.1800
     25 C25       -11.5789   -0.7112   61.4377 C.ar    1  ZINC000492313853   -0.0400
     26 N26       -13.5676   -2.6921   60.0631 N.2     1  ZINC000492313853   -0.2700
     27 N27       -14.1970   -3.1769   58.9097 N.pl3   1  ZINC000492313853   -0.3900
     28 C28       -15.5925   -3.6112   58.8085 C.3     1  ZINC000492313853    0.1000
     29 C29       -11.9904   -0.3489   52.8124 C.ar    1  ZINC000492313853    0.1700
     30 N30       -10.7525    0.0381   52.5699 N.ar    1  ZINC000492313853   -0.5400
     31 H31        -6.9656   -1.8353   52.2591 H       1  ZINC000492313853    0.0600
     32 H32        -8.0434   -1.9462   50.8469 H       1  ZINC000492313853    0.0700
     33 H33        -6.8139   -0.6616   50.9295 H       1  ZINC000492313853    0.0700
     34 H34        -7.0443    1.1446   52.2852 H       1  ZINC000492313853    0.0700
     35 H35        -8.7221    1.6966   52.0652 H       1  ZINC000492313853    0.0600
     36 H36        -8.1874    1.0830   53.6482 H       1  ZINC000492313853    0.0600
     37 H37        -9.1987   -2.9090   52.4569 H       1  ZINC000492313853    0.1300
     38 H38       -11.5098   -3.6879   52.9227 H       1  ZINC000492313853    0.1400
     39 H39       -14.3081   -1.2473   53.5213 H       1  ZINC000492313853    0.0800
     40 H40       -14.1465   -2.5652   52.3359 H       1  ZINC000492313853    0.0800
     41 H41       -13.8814   -4.0334   54.1282 H       1  ZINC000492313853    0.4000
     42 H42       -13.6688   -4.5344   56.3983 H       1  ZINC000492313853    0.4100
     43 H43       -11.1920   -2.5805   57.8557 H       1  ZINC000492313853    0.1800
     44 H44        -9.8460   -3.3743   60.2555 H       1  ZINC000492313853    0.1400
     45 H45        -8.1665   -2.4612   61.8045 H       1  ZINC000492313853    0.1400
     46 H46        -8.6668   -0.4409   63.1160 H       1  ZINC000492313853    0.1400
     47 H47       -12.5354   -0.2199   61.3376 H       1  ZINC000492313853    0.1400
     48 H48       -16.2184   -2.7620   58.5344 H       1  ZINC000492313853    0.0800
     49 H49       -15.6775   -4.3861   58.0467 H       1  ZINC000492313853    0.0800
     50 H50       -15.9198   -4.0087   59.7693 H       1  ZINC000492313853    0.1000
     51 H51       -12.7708    0.3914   52.9103 H       1  ZINC000492313853    0.1600
@<TRIPOS>BOND
     1     1     2    1
     2     1    31    1
     3     1    32    1
     4     1    33    1
     5     2     3    1
     6     2     4    1
     7     3    34    1
     8     3    35    1
     9     3    36    1
    10     4    30   ar
    11     4     5   ar
    12     5     6   ar
    13     5    37    1
    14     6     7   ar
    15     6    38    1
    16     7     8    1
    17     7    29   ar
    18     8     9    1
    19     8    39    1
    20     8    40    1
    21     9    10   am
    22     9    41    1
    23    10    11    2
    24    10    12   am
    25    12    13    1
    26    12    42    1
    27    13    27    1
    28    13    14    2
    29    14    15    1
    30    14    43    1
    31    15    16    1
    32    15    26    2
    33    16    25   ar
    34    16    17   ar
    35    17    18   ar
    36    17    44    1
    37    18    19   ar
    38    18    45    1
    39    19    20   ar
    40    19    46    1
    41    20    21    1
    42    20    25   ar
    43    21    22    1
    44    21    23    1
    45    21    24    1
    46    25    47    1
    47    26    27    1
    48    27    28    1
    49    28    48    1
    50    28    49    1
    51    28    50    1
    52    29    30   ar
    53    29    51    1
@<TRIPOS>SUBSTRUCTURE
     1 ZINC000492313853        1 TEMP              0 ****  ****    0 ROOT


##########                                Name:    ZINC000460972051
##########                DOCK_Rotatable_Bonds:                  10
##########                         Heavy_Atoms:                  29
##########                    Molecular_Weight:             417.572
##########                DOCK_Rotatable_Bonds:                  10
##########                       Formal_Charge:         3.31551e-07
##########                     HBond_Acceptors:                   7
##########                        HBond_Donors:                   2
##########                         Heavy_Atoms:                  29
##########                          Grid_Score:          -35.098057
##########                     Grid_vdw_energy:          -34.483955
##########                      Grid_es_energy:           -0.614102
##########           Internal_energy_repulsive:           33.724529

@<TRIPOS>MOLECULE
ZINC000460972051
 60 61 1 0 0
SMALL
USER_CHARGES


@<TRIPOS>ATOM
      1 C1        -15.3826    1.6563   50.2555 C.3     1  ZINC000460972051   -0.1800
      2 C2        -13.9779    1.4915   49.6721 C.3     1  ZINC000460972051    0.1000
      3 N3        -13.3143    0.3524   50.3112 N.am    1  ZINC000460972051   -0.6200
      4 C4        -12.5101    0.5506   51.3744 C.2     1  ZINC000460972051    0.7100
      5 O5        -12.3364    1.6747   51.8040 O.2     1  ZINC000460972051   -0.5800
      6 N6        -11.8984   -0.4972   51.9612 N.am    1  ZINC000460972051   -0.7400
      7 C7        -11.0255   -0.2820   53.1180 C.3     1  ZINC000460972051    0.2000
      8 H8        -11.3911    0.5667   53.6961 H       1  ZINC000460972051    0.1100
      9 C9        -11.0245   -1.5348   53.9963 C.3     1  ZINC000460972051    0.1100
     10 N10       -12.3698   -1.7563   54.5325 N.am    1  ZINC000460972051   -1.1200
     11 S11       -12.7772   -1.1553   56.0208 S.o2    1  ZINC000460972051    2.7000
     12 O12       -12.4724    0.2323   55.9904 O.2     1  ZINC000460972051   -0.9500
     13 O13       -14.0721   -1.6602   56.3167 O.2     1  ZINC000460972051   -0.9600
     14 C14       -11.6805   -1.8801   57.1941 C.ar    1  ZINC000460972051   -0.6900
     15 C15       -10.7527   -1.0938   57.8504 C.ar    1  ZINC000460972051   -0.0100
     16 C16        -9.8922   -1.6626   58.7711 C.ar    1  ZINC000460972051   -0.1500
     17 C17        -9.9602   -3.0175   59.0354 C.ar    1  ZINC000460972051   -0.0200
     18 C18        -9.0219   -3.6375   60.0385 C.3     1  ZINC000460972051   -0.1300
     19 C19       -10.8893   -3.8039   58.3798 C.ar    1  ZINC000460972051   -0.1500
     20 C20       -11.7521   -3.2346   57.4622 C.ar    1  ZINC000460972051    0.0300
     21 C21       -12.7648   -4.0917   56.7477 C.3     1  ZINC000460972051   -0.1700
     22 C22        -9.6232    0.0000   52.6436 C.ar    1  ZINC000460972051   -0.1000
     23 C23        -8.8615   -1.0153   52.0962 C.ar    1  ZINC000460972051   -0.1000
     24 C24        -7.5751   -0.7567   51.6610 C.ar    1  ZINC000460972051   -0.1200
     25 C25        -7.0507    0.5175   51.7728 C.ar    1  ZINC000460972051   -0.1200
     26 C26        -7.8128    1.5330   52.3194 C.ar    1  ZINC000460972051   -0.1200
     27 C27        -9.1007    1.2753   52.7506 C.ar    1  ZINC000460972051   -0.1000
     28 C28       -13.5250   -1.0022   49.7946 C.3     1  ZINC000460972051    0.1500
     29 C29       -14.5873   -1.7103   50.6379 C.3     1  ZINC000460972051   -0.1600
     30 C30       -13.9955   -0.9262   48.3407 C.3     1  ZINC000460972051   -0.1600
     31 H31       -15.8763    2.5038   49.7800 H       1  ZINC000460972051    0.0700
     32 H32       -15.9604    0.7502   50.0731 H       1  ZINC000460972051    0.0600
     33 H33       -15.3120    1.8324   51.3288 H       1  ZINC000460972051    0.0700
     34 H34       -14.0485    1.3155   48.5987 H       1  ZINC000460972051    0.0700
     35 H35       -13.4001    2.3977   49.8545 H       1  ZINC000460972051    0.0900
     36 H36       -12.0360   -1.3939   51.6176 H       1  ZINC000460972051    0.4000
     37 H37       -10.7248   -2.3964   53.3997 H       1  ZINC000460972051    0.0900
     38 H38       -10.3228   -1.4008   54.8195 H       1  ZINC000460972051    0.0900
     39 H39       -13.0219   -2.2549   54.0157 H       1  ZINC000460972051    0.4200
     40 H40       -10.6995   -0.0350   57.6439 H       1  ZINC000460972051    0.1400
     41 H41        -9.1666   -1.0482   59.2834 H       1  ZINC000460972051    0.1300
     42 H42        -9.4767   -3.6069   61.0286 H       1  ZINC000460972051    0.0800
     43 H43        -8.8257   -4.6731   59.7607 H       1  ZINC000460972051    0.0700
     44 H44        -8.0848   -3.0812   60.0517 H       1  ZINC000460972051    0.0700
     45 H45       -10.9428   -4.8625   58.5866 H       1  ZINC000460972051    0.1300
     46 H46       -13.7213   -4.0334   57.2672 H       1  ZINC000460972051    0.0900
     47 H47       -12.8848   -3.7358   55.7245 H       1  ZINC000460972051    0.1000
     48 H48       -12.4210   -5.1260   56.7347 H       1  ZINC000460972051    0.0900
     49 H49        -9.2711   -2.0108   52.0088 H       1  ZINC000460972051    0.1200
     50 H50        -6.9797   -1.5501   51.2341 H       1  ZINC000460972051    0.1200
     51 H51        -6.0455    0.7194   51.4335 H       1  ZINC000460972051    0.1200
     52 H52        -7.4031    2.5284   52.4071 H       1  ZINC000460972051    0.1200
     53 H53        -9.6961    2.0687   53.1777 H       1  ZINC000460972051    0.1200
     54 H54       -12.5899   -1.5599   49.8451 H       1  ZINC000460972051    0.1000
     55 H55       -14.2522   -1.7645   51.6737 H       1  ZINC000460972051    0.0600
     56 H56       -15.5224   -1.1526   50.5874 H       1  ZINC000460972051    0.0600
     57 H57       -14.7441   -2.7181   50.2535 H       1  ZINC000460972051    0.0700
     58 H58       -13.2388   -0.4218   47.7398 H       1  ZINC000460972051    0.0600
     59 H59       -14.1522   -1.9340   47.9563 H       1  ZINC000460972051    0.0700
     60 H60       -14.9307   -0.3686   48.2902 H       1  ZINC000460972051    0.0600
@<TRIPOS>BOND
     1     1     2    1
     2     1    31    1
     3     1    32    1
     4     1    33    1
     5     2     3    1
     6     2    34    1
     7     2    35    1
     8     3     4   am
     9     3    28    1
    10     4     5    2
    11     4     6   am
    12     6     7    1
    13     6    36    1
    14     7     8    1
    15     7     9    1
    16     7    22    1
    17     9    10    1
    18     9    37    1
    19     9    38    1
    20    10    11   am
    21    10    39    1
    22    11    12    2
    23    11    13    2
    24    11    14    1
    25    14    20   ar
    26    14    15   ar
    27    15    16   ar
    28    15    40    1
    29    16    17   ar
    30    16    41    1
    31    17    18    1
    32    17    19   ar
    33    18    42    1
    34    18    43    1
    35    18    44    1
    36    19    20   ar
    37    19    45    1
    38    20    21    1
    39    21    46    1
    40    21    47    1
    41    21    48    1
    42    22    27   ar
    43    22    23   ar
    44    23    24   ar
    45    23    49    1
    46    24    25   ar
    47    24    50    1
    48    25    26   ar
    49    25    51    1
    50    26    27   ar
    51    26    52    1
    52    27    53    1
    53    28    29    1
    54    28    30    1
    55    28    54    1
    56    29    55    1
    57    29    56    1
    58    29    57    1
    59    30    58    1
    60    30    59    1
    61    30    60    1
@<TRIPOS>SUBSTRUCTURE
     1 ZINC000460972051        1 TEMP              0 ****  ****    0 ROOT


##########                                Name:    ZINC001169875900
##########                DOCK_Rotatable_Bonds:                   9
##########                         Heavy_Atoms:                  24
##########                    Molecular_Weight:             329.399
##########                DOCK_Rotatable_Bonds:                   9
##########                       Formal_Charge:          -0.0500002
##########                     HBond_Acceptors:                   6
##########                        HBond_Donors:                   1
##########                         Heavy_Atoms:                  24
##########                          Grid_Score:          -35.084335
##########                     Grid_vdw_energy:          -34.232986
##########                      Grid_es_energy:           -0.851350
##########           Internal_energy_repulsive:            8.851595

@<TRIPOS>MOLECULE
ZINC001169875900
 47 48 1 0 0
SMALL
USER_CHARGES


@<TRIPOS>ATOM
      1 C1        -14.1923   -5.3604   55.8250 C.3     1  ZINC001169875900   -0.1500
      2 C2        -13.1027   -5.3242   56.8986 C.3     1  ZINC001169875900   -0.1300
      3 C3        -12.1680   -4.1415   56.6369 C.3     1  ZINC001169875900    0.0700
      4 O4        -11.2356   -4.0241   57.7133 O.3     1  ZINC001169875900   -0.3100
      5 C5        -10.5783   -2.8421   57.8333 C.ar    1  ZINC001169875900    0.2700
      6 N6        -10.7228   -1.9168   56.9003 N.ar    1  ZINC001169875900   -0.5000
      7 C7        -10.0992   -0.7559   56.9718 C.ar    1  ZINC001169875900    0.0600
      8 C8         -9.2676   -0.4630   58.0421 C.ar    1  ZINC001169875900    0.1400
      9 N9         -8.6088    0.7702   58.1113 N.pl3   1  ZINC001169875900   -0.7400
     10 C10        -8.2631    1.4859   56.8807 C.3     1  ZINC001169875900    0.1800
     11 C11        -7.2003    2.5122   57.1781 C.ar    1  ZINC001169875900    0.1000
     12 C12        -7.5658    3.7429   57.6999 C.ar    1  ZINC001169875900   -0.1200
     13 C13        -6.5850    4.6841   57.9720 C.ar    1  ZINC001169875900   -0.0800
     14 C14        -5.2640    4.3568   57.7099 C.ar    1  ZINC001169875900   -0.1000
     15 C15        -4.9694    3.1001   57.1850 C.ar    1  ZINC001169875900    0.0900
     16 C16        -3.5631    2.7351   56.8994 C.2     1  ZINC001169875900    0.5200
     17 O17        -3.2878    1.6045   56.5522 O.2     1  ZINC001169875900   -0.5000
     18 O18        -2.5893    3.6569   57.0247 O.3     1  ZINC001169875900   -0.3300
     19 C19        -1.2208    3.1944   56.8778 C.3     1  ZINC001169875900    0.0600
     20 C20        -0.8061    2.4222   58.1318 C.3     1  ZINC001169875900   -0.1500
     21 N21        -5.9385    2.2256   56.9438 N.ar    1  ZINC001169875900   -0.4200
     22 C22        -9.0958   -1.4125   59.0479 C.ar    1  ZINC001169875900   -0.1200
     23 C23        -9.7664   -2.6174   58.9375 C.ar    1  ZINC001169875900   -0.1000
     24 C24        -9.6130   -3.6758   59.9994 C.3     1  ZINC001169875900   -0.1000
     25 H25       -13.7316   -5.4717   54.8434 H       1  ZINC001169875900    0.0600
     26 H26       -14.8581   -6.2030   56.0114 H       1  ZINC001169875900    0.0600
     27 H27       -14.7632   -4.4325   55.8553 H       1  ZINC001169875900    0.0600
     28 H28       -12.5318   -6.2523   56.8682 H       1  ZINC001169875900    0.0700
     29 H29       -13.5634   -5.2129   57.8802 H       1  ZINC001169875900    0.0700
     30 H30       -12.7536   -3.2252   56.5619 H       1  ZINC001169875900    0.0600
     31 H31       -11.6278   -4.3048   55.7043 H       1  ZINC001169875900    0.0600
     32 H32       -10.2377   -0.0262   56.1877 H       1  ZINC001169875900    0.1500
     33 H33        -8.3812    1.1507   58.9739 H       1  ZINC001169875900    0.4000
     34 H34        -7.8878    0.7779   56.1417 H       1  ZINC001169875900    0.0800
     35 H35        -9.1498    1.9842   56.4888 H       1  ZINC001169875900    0.0800
     36 H36        -8.6046    3.9667   57.8924 H       1  ZINC001169875900    0.1500
     37 H37        -6.8444    5.6501   58.3792 H       1  ZINC001169875900    0.1500
     38 H38        -4.4742    5.0660   57.9095 H       1  ZINC001169875900    0.1500
     39 H39        -1.1496    2.5408   56.0084 H       1  ZINC001169875900    0.0700
     40 H40        -0.5603    4.0509   56.7435 H       1  ZINC001169875900    0.0700
     41 H41        -0.8774    3.0758   59.0012 H       1  ZINC001169875900    0.0700
     42 H42        -1.4667    1.5656   58.2660 H       1  ZINC001169875900    0.0700
     43 H43         0.2212    2.0749   58.0215 H       1  ZINC001169875900    0.0800
     44 H44        -8.4542   -1.2124   59.8933 H       1  ZINC001169875900    0.1400
     45 H45       -10.3741   -3.5337   60.7666 H       1  ZINC001169875900    0.0700
     46 H46        -8.6236   -3.5975   60.4501 H       1  ZINC001169875900    0.0700
     47 H47        -9.7304   -4.6616   59.5494 H       1  ZINC001169875900    0.0700
@<TRIPOS>BOND
     1     1     2    1
     2     1    25    1
     3     1    26    1
     4     1    27    1
     5     2     3    1
     6     2    28    1
     7     2    29    1
     8     3     4    1
     9     3    30    1
    10     3    31    1
    11     4     5    1
    12     5    23   ar
    13     5     6   ar
    14     6     7   ar
    15     7     8   ar
    16     7    32    1
    17     8     9    1
    18     8    22   ar
    19     9    10    1
    20     9    33    1
    21    10    11    1
    22    10    34    1
    23    10    35    1
    24    11    21   ar
    25    11    12   ar
    26    12    13   ar
    27    12    36    1
    28    13    14   ar
    29    13    37    1
    30    14    15   ar
    31    14    38    1
    32    15    16    1
    33    15    21   ar
    34    16    17    2
    35    16    18    1
    36    18    19    1
    37    19    20    1
    38    19    39    1
    39    19    40    1
    40    20    41    1
    41    20    42    1
    42    20    43    1
    43    22    23   ar
    44    22    44    1
    45    23    24    1
    46    24    45    1
    47    24    46    1
    48    24    47    1
@<TRIPOS>SUBSTRUCTURE
     1 ZINC001169875900        1 TEMP              0 ****  ****    0 ROOT


##########                                Name:    ZINC000541252362
##########                DOCK_Rotatable_Bonds:                   5
##########                         Heavy_Atoms:                  27
##########                    Molecular_Weight:             401.254
##########                DOCK_Rotatable_Bonds:                   5
##########                       Formal_Charge:          -0.0199999
##########                     HBond_Acceptors:                   9
##########                        HBond_Donors:                   1
##########                         Heavy_Atoms:                  27
##########                          Grid_Score:          -35.066128
##########                     Grid_vdw_energy:          -33.856022
##########                      Grid_es_energy:           -1.210107
##########           Internal_energy_repulsive:            3.778637

@<TRIPOS>MOLECULE
ZINC000541252362
 41 44 1 0 0
SMALL
USER_CHARGES


@<TRIPOS>ATOM
      1 C1         -8.9570    0.7534   64.3114 C.3     1  ZINC000541252362    0.1000
      2 N2         -9.3155    0.3892   62.9384 N.pl3   1  ZINC000541252362   -0.3800
      3 C3         -9.6923    1.2272   61.9558 C.2     1  ZINC000541252362    0.2600
      4 N4         -9.9258    0.5209   60.8814 N.2     1  ZINC000541252362   -0.5300
      5 C5         -9.7094   -0.7765   61.1358 C.2     1  ZINC000541252362    0.2700
      6 C6         -9.8681   -1.8868   60.1639 C.ar    1  ZINC000541252362    0.0000
      7 C7         -9.5929   -3.1973   60.5493 C.ar    1  ZINC000541252362   -0.1000
      8 C8         -9.7414   -4.2294   59.6440 C.ar    1  ZINC000541252362   -0.1000
      9 C9        -10.1624   -3.9673   58.3543 C.ar    1  ZINC000541252362   -0.1300
     10 C10       -10.4391   -2.6634   57.9613 C.ar    1  ZINC000541252362    0.1400
     11 N11       -10.8653   -2.4017   56.6543 N.am    1  ZINC000541252362   -0.6800
     12 C12       -12.1622   -2.5604   56.3238 C.2     1  ZINC000541252362    0.5100
     13 O13       -12.9601   -2.9301   57.1592 O.2     1  ZINC000541252362   -0.4900
     14 C14       -12.6211   -2.2786   54.9164 C.3     1  ZINC000541252362   -0.0600
     15 C15       -11.5193   -1.5842   54.1582 C.2     1  ZINC000541252362    0.0700
     16 C16       -10.5757   -2.1919   53.4058 C.2     1  ZINC000541252362   -0.0700
     17 N17        -9.7725   -1.2097   52.8940 N.pl3   1  ZINC000541252362   -0.3500
     18 C18        -8.6772   -1.2436   52.0787 C.2     1  ZINC000541252362    0.0700
     19 C19        -8.0545   -0.1018   51.7156 C.2     1  ZINC000541252362   -0.0500
     20 Cl20       -6.6639   -0.1678   50.6786 Cl      1  ZINC000541252362   -0.0200
     21 C21        -8.5277    1.1399   52.1733 C.2     1  ZINC000541252362   -0.0900
     22 C22        -9.6185    1.1875   52.9859 C.2     1  ZINC000541252362    0.0200
     23 Cl23      -10.2178    2.7121   53.5607 Cl      1  ZINC000541252362   -0.0100
     24 C24       -10.2571   -0.0142   53.3562 C.2     1  ZINC000541252362    0.2200
     25 N25       -11.3161   -0.2655   54.1133 N.2     1  ZINC000541252362   -0.4300
     26 C26       -10.2979   -1.6223   58.8662 C.ar    1  ZINC000541252362   -0.0800
     27 N27        -9.3274   -0.9026   62.3877 N.2     1  ZINC000541252362   -0.3100
     28 H28        -7.8874    0.9561   64.3660 H       1  ZINC000541252362    0.0800
     29 H29        -9.5112    1.6440   64.6075 H       1  ZINC000541252362    0.0900
     30 H30        -9.2056   -0.0690   64.9821 H       1  ZINC000541252362    0.0900
     31 H31        -9.7860    2.2998   62.0405 H       1  ZINC000541252362    0.2200
     32 H32        -9.2629   -3.4058   61.5563 H       1  ZINC000541252362    0.1300
     33 H33        -9.5276   -5.2444   59.9447 H       1  ZINC000541252362    0.1300
     34 H34       -10.2764   -4.7778   57.6497 H       1  ZINC000541252362    0.1300
     35 H35       -10.2272   -2.1061   55.9863 H       1  ZINC000541252362    0.4100
     36 H36       -12.8680   -3.2171   54.4200 H       1  ZINC000541252362    0.1200
     37 H37       -13.5031   -1.6387   54.9429 H       1  ZINC000541252362    0.1200
     38 H38       -10.4741   -3.2543   53.2400 H       1  ZINC000541252362    0.1900
     39 H39        -8.3055   -2.1926   51.7214 H       1  ZINC000541252362    0.1800
     40 H40        -8.0279    2.0520   51.8820 H       1  ZINC000541252362    0.1600
     41 H41       -10.5128   -0.6083   58.5629 H       1  ZINC000541252362    0.1500
@<TRIPOS>BOND
     1     1     2    1
     2     1    28    1
     3     1    29    1
     4     1    30    1
     5     2    27    1
     6     2     3    1
     7     3     4    2
     8     3    31    1
     9     4     5    1
    10     5     6    1
    11     5    27    2
    12     6    26   ar
    13     6     7   ar
    14     7     8   ar
    15     7    32    1
    16     8     9   ar
    17     8    33    1
    18     9    10   ar
    19     9    34    1
    20    10    11    1
    21    10    26   ar
    22    11    12   am
    23    11    35    1
    24    12    13    2
    25    12    14    1
    26    14    15    1
    27    14    36    1
    28    14    37    1
    29    15    25    1
    30    15    16    2
    31    16    17    1
    32    16    38    1
    33    17    24    1
    34    17    18    1
    35    18    19    2
    36    18    39    1
    37    19    20    1
    38    19    21    1
    39    21    22    2
    40    21    40    1
    41    22    23    1
    42    22    24    1
    43    24    25    2
    44    26    41    1
@<TRIPOS>SUBSTRUCTURE
     1 ZINC000541252362        1 TEMP              0 ****  ****    0 ROOT


##########                                Name:    ZINC000504243286
##########                DOCK_Rotatable_Bonds:                   7
##########                         Heavy_Atoms:                  29
##########                    Molecular_Weight:             408.337
##########                DOCK_Rotatable_Bonds:                   7
##########                       Formal_Charge:           0.0299994
##########                     HBond_Acceptors:                  11
##########                        HBond_Donors:                   3
##########                         Heavy_Atoms:                  29
##########                          Grid_Score:          -35.064857
##########                     Grid_vdw_energy:          -34.611824
##########                      Grid_es_energy:           -0.453034
##########           Internal_energy_repulsive:           10.784802

@<TRIPOS>MOLECULE
ZINC000504243286
 44 46 1 0 0
SMALL
USER_CHARGES


@<TRIPOS>ATOM
      1 O1        -12.0598   -1.1655   53.9402 O.2     1  ZINC000504243286   -0.5200
      2 C2        -11.2120   -1.9478   53.5655 C.2     1  ZINC000504243286    0.5200
      3 C3        -10.1819   -1.5153   52.5542 C.3     1  ZINC000504243286   -0.1600
      4 C4         -9.7412   -0.0816   52.8564 C.3     1  ZINC000504243286    0.1300
      5 N5         -8.6587    0.2987   51.9454 N.pl3   1  ZINC000504243286   -0.7200
      6 C6         -7.8250    1.3738   52.2618 C.ar    1  ZINC000504243286    0.3100
      7 C7         -8.1745    2.2488   53.2822 C.ar    1  ZINC000504243286   -0.1900
      8 C8         -7.3476    3.3106   53.5929 C.ar    1  ZINC000504243286    0.0200
      9 C9         -6.1730    3.5030   52.8893 C.ar    1  ZINC000504243286   -0.2400
     10 C10        -5.2730    4.6623   53.2314 C.3     1  ZINC000504243286    0.5200
     11 F11        -5.3744    4.9440   54.5979 F       1  ZINC000504243286   -0.1700
     12 F12        -3.9495    4.3330   52.9201 F       1  ZINC000504243286   -0.1700
     13 F13        -5.6597    5.7864   52.4936 F       1  ZINC000504243286   -0.1700
     14 C14        -5.8219    2.6336   51.8726 C.ar    1  ZINC000504243286    0.0400
     15 C15        -6.6414    1.5670   51.5604 C.ar    1  ZINC000504243286   -0.1200
     16 N16        -6.2649    0.6371   50.4722 N.pl3   1  ZINC000504243286    0.0400
     17 O17        -6.4923   -0.5543   50.5833 O.2     1  ZINC000504243286   -0.1700
     18 O18        -5.7276    1.0632   49.4656 O.2     1  ZINC000504243286   -0.1400
     19 N19       -11.1879   -3.2022   54.0578 N.am    1  ZINC000504243286   -0.6700
     20 C20       -12.1454   -3.6042   54.9979 C.ar    1  ZINC000504243286    0.1200
     21 C21       -13.0950   -4.5597   54.6614 C.ar    1  ZINC000504243286   -0.1000
     22 C22       -14.0386   -4.9580   55.5848 C.ar    1  ZINC000504243286   -0.1200
     23 C23       -14.0468   -4.4036   56.8631 C.ar    1  ZINC000504243286    0.1300
     24 N24       -14.8875   -4.6389   57.9538 N.am    1  ZINC000504243286   -0.6600
     25 C25       -14.5585   -3.8903   59.0199 C.2     1  ZINC000504243286    0.5300
     26 O26       -15.1140   -3.8890   60.0982 O.2     1  ZINC000504243286   -0.5000
     27 C27       -13.3642   -3.0491   58.6229 C.3     1  ZINC000504243286   -0.1200
     28 C28       -13.0926   -3.4480   57.1907 C.ar    1  ZINC000504243286   -0.1200
     29 C29       -12.1460   -3.0525   56.2739 C.ar    1  ZINC000504243286   -0.0600
     30 H30        -9.3193   -2.1794   52.6074 H       1  ZINC000504243286    0.1100
     31 H31       -10.6135   -1.5595   51.5543 H       1  ZINC000504243286    0.1100
     32 H32       -10.5852    0.5944   52.7199 H       1  ZINC000504243286    0.0800
     33 H33        -9.3884   -0.0193   53.8858 H       1  ZINC000504243286    0.0900
     34 H34        -8.5209   -0.1960   51.1226 H       1  ZINC000504243286    0.4100
     35 H35        -9.0920    2.0993   53.8320 H       1  ZINC000504243286    0.1600
     36 H36        -7.6189    3.9917   54.3860 H       1  ZINC000504243286    0.1600
     37 H37        -4.9037    2.7867   51.3249 H       1  ZINC000504243286    0.1600
     38 H38       -10.5074   -3.8266   53.7612 H       1  ZINC000504243286    0.4200
     39 H39       -13.0947   -4.9928   53.6721 H       1  ZINC000504243286    0.1400
     40 H40       -14.7742   -5.7017   55.3161 H       1  ZINC000504243286    0.1300
     41 H41       -15.6239   -5.2702   57.9428 H       1  ZINC000504243286    0.4100
     42 H42       -13.6070   -1.9882   58.6844 H       1  ZINC000504243286    0.1300
     43 H43       -12.5063   -3.2825   59.2536 H       1  ZINC000504243286    0.1300
     44 H44       -11.4073   -2.3124   56.5439 H       1  ZINC000504243286    0.1500
@<TRIPOS>BOND
     1     1     2    2
     2     2     3    1
     3     2    19   am
     4     3     4    1
     5     3    30    1
     6     3    31    1
     7     4     5    1
     8     4    32    1
     9     4    33    1
    10     5     6    1
    11     5    34    1
    12     6    15   ar
    13     6     7   ar
    14     7     8   ar
    15     7    35    1
    16     8     9   ar
    17     8    36    1
    18     9    10    1
    19     9    14   ar
    20    10    11    1
    21    10    12    1
    22    10    13    1
    23    14    15   ar
    24    14    37    1
    25    15    16    1
    26    16    17    2
    27    16    18    2
    28    19    20    1
    29    19    38    1
    30    20    29   ar
    31    20    21   ar
    32    21    22   ar
    33    21    39    1
    34    22    23   ar
    35    22    40    1
    36    23    28   ar
    37    23    24    1
    38    24    25   am
    39    24    41    1
    40    25    26    2
    41    25    27    1
    42    27    28    1
    43    27    42    1
    44    27    43    1
    45    28    29   ar
    46    29    44    1
@<TRIPOS>SUBSTRUCTURE
     1 ZINC000504243286        1 TEMP              0 ****  ****    0 ROOT


##########                                Name:    ZINC000989658617
##########                DOCK_Rotatable_Bonds:                   6
##########                         Heavy_Atoms:                  24
##########                    Molecular_Weight:             334.418
##########                DOCK_Rotatable_Bonds:                   6
##########                       Formal_Charge:          -0.0100001
##########                     HBond_Acceptors:                   7
##########                        HBond_Donors:                   2
##########                         Heavy_Atoms:                  24
##########                          Grid_Score:          -35.052517
##########                     Grid_vdw_energy:          -33.361767
##########                      Grid_es_energy:           -1.690750
##########           Internal_energy_repulsive:            7.501724

@<TRIPOS>MOLECULE
ZINC000989658617
 50 52 1 0 0
SMALL
USER_CHARGES


@<TRIPOS>ATOM
      1 C1        -15.2106   -0.7781   49.4806 C.3     1  ZINC000989658617    0.0300
      2 O2        -14.4271   -1.8227   50.0611 O.3     1  ZINC000989658617   -0.3700
      3 C3        -14.5747   -1.9414   51.4775 C.3     1  ZINC000989658617    0.0500
      4 C4        -13.2228   -2.1587   52.1070 C.2     1  ZINC000989658617    0.5300
      5 O5        -12.2220   -1.7692   51.5435 O.2     1  ZINC000989658617   -0.5100
      6 N6        -13.1261   -2.7856   53.2960 N.am    1  ZINC000989658617   -0.6200
      7 C7        -14.2556   -3.3076   54.0865 C.3     1  ZINC000989658617    0.1000
      8 C8        -13.7348   -3.3462   55.5449 C.3     1  ZINC000989658617   -0.1500
      9 C9        -12.2570   -3.7707   55.3368 C.3     1  ZINC000989658617    0.1400
     10 H10       -12.1779   -4.8526   55.2304 H       1  ZINC000989658617    0.1100
     11 N11       -11.4212   -3.2982   56.4433 N.am    1  ZINC000989658617   -0.7100
     12 C12       -11.0836   -4.1401   57.4401 C.2     1  ZINC000989658617    0.6100
     13 O13       -11.4738   -5.2912   57.4218 O.2     1  ZINC000989658617   -0.5200
     14 C14       -10.2394   -3.6641   58.5548 C.2     1  ZINC000989658617   -0.0100
     15 N15        -9.1163   -4.2132   58.9852 N.2     1  ZINC000989658617   -0.2600
     16 N16        -8.6422   -3.5369   59.9741 N.pl3   1  ZINC000989658617   -0.3700
     17 C17        -9.4434   -2.4934   60.2444 C.2     1  ZINC000989658617    0.0100
     18 C18       -10.4703   -2.5364   59.3602 C.2     1  ZINC000989658617   -0.1400
     19 C19       -11.6022   -1.5472   59.3167 C.3     1  ZINC000989658617   -0.0400
     20 C20       -11.6163   -0.7728   60.6416 C.3     1  ZINC000989658617   -0.0900
     21 H21       -11.9437   -1.4331   61.4447 H       1  ZINC000989658617    0.0700
     22 C22       -12.5792    0.4108   60.5302 C.3     1  ZINC000989658617   -0.1500
     23 C23       -10.2075   -0.2571   60.9475 C.3     1  ZINC000989658617   -0.1100
     24 C24        -9.2912   -1.4328   61.3043 C.3     1  ZINC000989658617   -0.0500
     25 C25       -11.8760   -3.0681   54.0166 C.3     1  ZINC000989658617    0.1300
     26 H26       -11.3578   -2.1333   54.2303 H       1  ZINC000989658617    0.0800
     27 C27       -10.9770   -3.9820   53.1814 C.3     1  ZINC000989658617   -0.1600
     28 H28       -16.2664   -0.9623   49.6796 H       1  ZINC000989658617    0.0500
     29 H29       -14.9204    0.1784   49.9154 H       1  ZINC000989658617    0.0400
     30 H30       -15.0428   -0.7536   48.4038 H       1  ZINC000989658617    0.0900
     31 H31       -15.0178   -1.0281   51.8744 H       1  ZINC000989658617    0.0800
     32 H32       -15.2220   -2.7882   51.7057 H       1  ZINC000989658617    0.0800
     33 H33       -15.1141   -2.6407   54.0078 H       1  ZINC000989658617    0.0800
     34 H34       -14.5215   -4.3104   53.7521 H       1  ZINC000989658617    0.0800
     35 H35       -13.7968   -2.3614   56.0081 H       1  ZINC000989658617    0.0800
     36 H36       -14.2752   -4.0877   56.1334 H       1  ZINC000989658617    0.1000
     37 H37       -11.1108   -2.3793   56.4585 H       1  ZINC000989658617    0.4100
     38 H38        -7.8262   -3.7501   60.4531 H       1  ZINC000989658617    0.4500
     39 H39       -11.4535   -0.8549   58.4880 H       1  ZINC000989658617    0.0800
     40 H40       -12.5472   -2.0754   59.1897 H       1  ZINC000989658617    0.0800
     41 H41       -13.5824    0.0440   60.3131 H       1  ZINC000989658617    0.0600
     42 H42       -12.5893    0.9610   61.4712 H       1  ZINC000989658617    0.0600
     43 H43       -12.2521    1.0711   59.7269 H       1  ZINC000989658617    0.0600
     44 H44        -9.8105    0.2553   60.0713 H       1  ZINC000989658617    0.0700
     45 H45       -10.2497    0.4384   61.7858 H       1  ZINC000989658617    0.0800
     46 H46        -9.5803   -1.8432   62.2718 H       1  ZINC000989658617    0.0800
     47 H47        -8.2562   -1.0931   61.3433 H       1  ZINC000989658617    0.0800
     48 H48       -11.5080   -4.9070   52.9563 H       1  ZINC000989658617    0.0600
     49 H49       -10.7122   -3.4795   52.2511 H       1  ZINC000989658617    0.0700
     50 H50       -10.0704   -4.2106   53.7418 H       1  ZINC000989658617    0.0700
@<TRIPOS>BOND
     1     1     2    1
     2     1    28    1
     3     1    29    1
     4     1    30    1
     5     2     3    1
     6     3     4    1
     7     3    31    1
     8     3    32    1
     9     4     5    2
    10     4     6   am
    11     6    25    1
    12     6     7    1
    13     7     8    1
    14     7    33    1
    15     7    34    1
    16     8     9    1
    17     8    35    1
    18     8    36    1
    19     9    10    1
    20     9    11    1
    21     9    25    1
    22    11    12   am
    23    11    37    1
    24    12    13    2
    25    12    14    1
    26    14    18    1
    27    14    15    2
    28    15    16    1
    29    16    17    1
    30    16    38    1
    31    17    24    1
    32    17    18    2
    33    18    19    1
    34    19    20    1
    35    19    39    1
    36    19    40    1
    37    20    21    1
    38    20    22    1
    39    20    23    1
    40    22    41    1
    41    22    42    1
    42    22    43    1
    43    23    24    1
    44    23    44    1
    45    23    45    1
    46    24    46    1
    47    24    47    1
    48    25    26    1
    49    25    27    1
    50    27    48    1
    51    27    49    1
    52    27    50    1
@<TRIPOS>SUBSTRUCTURE
     1 ZINC000989658617        1 TEMP              0 ****  ****    0 ROOT


##########                                Name:    ZINC001579482641
##########                DOCK_Rotatable_Bonds:                   5
##########                         Heavy_Atoms:                  26
##########                    Molecular_Weight:             355.359
##########                DOCK_Rotatable_Bonds:                   5
##########                       Formal_Charge:                0.05
##########                     HBond_Acceptors:                  11
##########                        HBond_Donors:                   1
##########                         Heavy_Atoms:                  26
##########                          Grid_Score:          -35.010353
##########                     Grid_vdw_energy:          -32.642506
##########                      Grid_es_energy:           -2.367847
##########           Internal_energy_repulsive:           15.548284

@<TRIPOS>MOLECULE
ZINC001579482641
 43 46 1 0 0
SMALL
USER_CHARGES


@<TRIPOS>ATOM
      1 C1        -14.3403    0.2681   64.4355 C.3     1  ZINC001579482641    0.0300
      2 O2        -13.8430   -0.2825   63.1873 O.3     1  ZINC001579482641   -0.3300
      3 C3        -14.7601   -0.6292   62.2633 C.2     1  ZINC001579482641    0.5300
      4 O4        -15.9304   -0.3525   62.4354 O.2     1  ZINC001579482641   -0.4900
      5 C5        -14.3426   -1.3459   61.0408 C.ar    1  ZINC001579482641    0.0900
      6 C6        -15.3022   -1.7134   60.0959 C.ar    1  ZINC001579482641   -0.0800
      7 C7        -14.9062   -2.3842   58.9531 C.ar    1  ZINC001579482641   -0.1200
      8 C8        -13.5536   -2.6710   58.7853 C.ar    1  ZINC001579482641    0.1100
      9 N9        -13.1121   -3.3423   57.6531 N.3     1  ZINC001579482641   -0.4600
     10 C10       -13.7698   -4.6683   57.5300 C.3     1  ZINC001579482641    0.0400
     11 C11       -13.5895   -5.0157   56.0309 C.3     1  ZINC001579482641   -0.1100
     12 C12       -13.7670   -3.6466   55.3350 C.3     1  ZINC001579482641   -0.0100
     13 H13       -14.7895   -3.5354   54.9742 H       1  ZINC001579482641    0.0900
     14 C14       -12.7925   -3.5098   54.1937 C.2     1  ZINC001579482641    0.1800
     15 N15       -11.5569   -3.9299   54.1770 N.2     1  ZINC001579482641   -0.2600
     16 N16       -11.0187   -3.6467   53.0440 N.2     1  ZINC001579482641   -0.2900
     17 C17       -11.8865   -3.0331   52.2864 C.2     1  ZINC001579482641    0.1500
     18 N18       -13.0385   -2.9332   52.9925 N.pl3   1  ZINC001579482641   -0.4800
     19 C19       -14.2929   -2.3189   52.5503 C.3     1  ZINC001579482641    0.0700
     20 C20       -13.4679   -2.6000   56.4243 C.3     1  ZINC001579482641    0.0600
     21 C21       -12.6419   -2.2714   59.7772 C.ar    1  ZINC001579482641    0.2300
     22 C22       -11.1981   -2.5699   59.6122 C.2     1  ZINC001579482641    0.2100
     23 N23       -10.2919   -2.6296   60.5681 N.2     1  ZINC001579482641   -0.2600
     24 N24        -9.1603   -2.9143   60.0214 N.pl3   1  ZINC001579482641   -0.2300
     25 N25        -9.3201   -3.0369   58.7499 N.2     1  ZINC001579482641   -0.0500
     26 N26       -10.5616   -2.8371   58.4627 N.2     1  ZINC001579482641   -0.2000
     27 N27       -13.0586   -1.6276   60.8523 N.ar    1  ZINC001579482641   -0.4000
     28 H28       -14.9858   -0.4623   64.9232 H       1  ZINC001579482641    0.0700
     29 H29       -13.5002    0.5042   65.0888 H       1  ZINC001579482641    0.1100
     30 H30       -14.9081    1.1759   64.2314 H       1  ZINC001579482641    0.0700
     31 H31       -16.3437   -1.4765   60.2559 H       1  ZINC001579482641    0.1600
     32 H32       -15.6298   -2.6795   58.2076 H       1  ZINC001579482641    0.1600
     33 H33       -13.2701   -5.4055   58.1586 H       1  ZINC001579482641    0.1000
     34 H34       -14.8275   -4.5982   57.7843 H       1  ZINC001579482641    0.0600
     35 H35       -12.5931   -5.4166   55.8450 H       1  ZINC001579482641    0.1000
     36 H36       -14.3563   -5.7175   55.7027 H       1  ZINC001579482641    0.0800
     37 H37       -11.7186   -2.6749   51.2814 H       1  ZINC001579482641    0.2200
     38 H38       -14.9135   -3.0706   52.0627 H       1  ZINC001579482641    0.0800
     39 H39       -14.8228   -1.9138   53.4124 H       1  ZINC001579482641    0.0900
     40 H40       -14.0756   -1.5151   51.8468 H       1  ZINC001579482641    0.0900
     41 H41       -14.3516   -1.9874   56.6033 H       1  ZINC001579482641    0.0600
     42 H42       -12.6331   -1.9710   56.1157 H       1  ZINC001579482641    0.1000
     43 H43        -8.3196   -3.0195   60.4938 H       1  ZINC001579482641    0.4800
@<TRIPOS>BOND
     1     1     2    1
     2     1    28    1
     3     1    29    1
     4     1    30    1
     5     2     3    1
     6     3     4    2
     7     3     5    1
     8     5    27   ar
     9     5     6   ar
    10     6     7   ar
    11     6    31    1
    12     7     8   ar
    13     7    32    1
    14     8     9    1
    15     8    21   ar
    16     9    20    1
    17     9    10    1
    18    10    11    1
    19    10    33    1
    20    10    34    1
    21    11    12    1
    22    11    35    1
    23    11    36    1
    24    12    13    1
    25    12    14    1
    26    12    20    1
    27    14    18    1
    28    14    15    2
    29    15    16    1
    30    16    17    2
    31    17    18    1
    32    17    37    1
    33    18    19    1
    34    19    38    1
    35    19    39    1
    36    19    40    1
    37    20    41    1
    38    20    42    1
    39    21    22    1
    40    21    27   ar
    41    22    26    1
    42    22    23    2
    43    23    24    1
    44    24    25    1
    45    24    43    1
    46    25    26    2
@<TRIPOS>SUBSTRUCTURE
     1 ZINC001579482641        1 TEMP              0 ****  ****    0 ROOT


##########                                Name:    ZINC000284209281
##########                DOCK_Rotatable_Bonds:                   8
##########                         Heavy_Atoms:                  26
##########                    Molecular_Weight:             353.424
##########                DOCK_Rotatable_Bonds:                   8
##########                       Formal_Charge:          0.00999954
##########                     HBond_Acceptors:                   7
##########                        HBond_Donors:                   1
##########                         Heavy_Atoms:                  26
##########                          Grid_Score:          -34.973629
##########                     Grid_vdw_energy:          -34.528400
##########                      Grid_es_energy:           -0.445230
##########           Internal_energy_repulsive:           13.394914

@<TRIPOS>MOLECULE
ZINC000284209281
 49 51 1 0 0
SMALL
USER_CHARGES


@<TRIPOS>ATOM
      1 O1        -13.1276   -5.0123   57.6863 O.2     1  <0>        -0.5100
      2 C2        -12.0796   -4.6107   57.2250 C.2     1  <0>         0.5100
      3 N3        -12.0255   -4.1821   55.9483 N.am    1  <0>        -0.7000
      4 C4        -13.2306   -4.2068   55.1157 C.3     1  <0>         0.1200
      5 C5        -12.8340   -4.1081   53.6413 C.3     1  <0>        -0.1000
      6 C6        -11.8981   -2.9427   53.4498 C.ar    1  <0>        -0.0400
      7 C7        -12.0735   -1.7668   54.1633 C.ar    1  <0>        -0.1700
      8 C8        -11.1953   -0.7191   53.9612 C.ar    1  <0>         0.1000
      9 N9        -10.2010   -0.8285   53.1021 N.ar    1  <0>        -0.4900
     10 C10       -10.0037   -1.9314   52.4065 C.ar    1  <0>         0.1000
     11 C11       -10.8377   -3.0227   52.5602 C.ar    1  <0>        -0.1700
     12 C12       -10.8502   -4.5855   58.0743 C.2     1  <0>         0.5100
     13 O13       -10.1867   -5.5923   58.2116 O.2     1  <0>        -0.5200
     14 N14       -10.4784   -3.4446   58.6881 N.am    1  <0>        -0.5800
     15 C15       -11.2714   -2.2148   58.5401 C.3     1  <0>         0.0800
     16 C16       -11.5620   -1.6521   59.9355 C.3     1  <0>         0.0400
     17 N17       -10.2989   -1.4923   60.6683 N.3     1  <0>        -0.5300
     18 C18       -10.5147   -0.7965   61.9440 C.3     1  <0>         0.1000
     19 C19       -10.7228    0.6735   61.6854 C.ar    1  <0>         0.1300
     20 C20       -11.3926    1.4427   62.6177 C.ar    1  <0>        -0.1500
     21 C21       -11.5783    2.7945   62.3705 C.ar    1  <0>        -0.0700
     22 C22       -11.0811    3.3236   61.1895 C.ar    1  <0>        -0.1700
     23 C23       -10.4215    2.4922   60.3040 C.ar    1  <0>         0.1000
     24 N24       -10.2588    1.2120   60.5746 N.ar    1  <0>        -0.4800
     25 C25        -9.6382   -2.7871   60.8801 C.3     1  <0>         0.0400
     26 C26        -9.2722   -3.3979   59.5283 C.3     1  <0>         0.1100
     27 H27       -11.1887   -3.8572   55.5808 H       1  <0>         0.4100
     28 H28       -13.7704   -5.1385   55.2853 H       1  <0>         0.0800
     29 H29       -13.8702   -3.3637   55.3772 H       1  <0>         0.0800
     30 H30       -12.3354   -5.0284   53.3369 H       1  <0>         0.0900
     31 H31       -13.7271   -3.9607   53.0339 H       1  <0>         0.0900
     32 H32       -12.8865   -1.6708   54.8679 H       1  <0>         0.1400
     33 H33       -11.3251    0.2002   54.5131 H       1  <0>         0.1600
     34 H34        -9.1785   -1.9837   51.7117 H       1  <0>         0.1600
     35 H35       -10.6708   -3.9232   51.9879 H       1  <0>         0.1400
     36 H36       -10.7083   -1.4835   57.9604 H       1  <0>         0.0800
     37 H37       -12.2098   -2.4428   58.0345 H       1  <0>         0.1400
     38 H38       -12.0533   -0.6836   59.8421 H       1  <0>         0.0900
     39 H39       -12.2121   -2.3395   60.4768 H       1  <0>         0.0400
     40 H40       -11.3958   -1.2070   62.4372 H       1  <0>         0.0900
     41 H41        -9.6432   -0.9330   62.5843 H       1  <0>         0.0600
     42 H42       -11.7669    0.9967   63.5273 H       1  <0>         0.1400
     43 H43       -12.0983    3.4202   63.0808 H       1  <0>         0.1400
     44 H44       -11.2080    4.3722   60.9640 H       1  <0>         0.1400
     45 H45       -10.0315    2.8966   59.3816 H       1  <0>         0.1600
     46 H46        -8.7344   -2.6418   61.4718 H       1  <0>         0.1000
     47 H47       -10.3150   -3.4588   61.4083 H       1  <0>         0.0400
     48 H48        -8.8867   -4.4069   59.6748 H       1  <0>         0.1000
     49 H49        -8.5170   -2.7816   59.0406 H       1  <0>         0.0800
@<TRIPOS>BOND
     1     1     2    2
     2     2     3   am
     3     2    12    1
     4     3     4    1
     5     3    27    1
     6     4     5    1
     7     4    28    1
     8     4    29    1
     9     5     6    1
    10     5    30    1
    11     5    31    1
    12     6    11   ar
    13     6     7   ar
    14     7     8   ar
    15     7    32    1
    16     8     9   ar
    17     8    33    1
    18     9    10   ar
    19    10    11   ar
    20    10    34    1
    21    11    35    1
    22    12    13    2
    23    12    14   am
    24    14    26    1
    25    14    15    1
    26    15    16    1
    27    15    36    1
    28    15    37    1
    29    16    17    1
    30    16    38    1
    31    16    39    1
    32    17    18    1
    33    17    25    1
    34    18    19    1
    35    18    40    1
    36    18    41    1
    37    19    24   ar
    38    19    20   ar
    39    20    21   ar
    40    20    42    1
    41    21    22   ar
    42    21    43    1
    43    22    23   ar
    44    22    44    1
    45    23    24   ar
    46    23    45    1
    47    25    26    1
    48    25    46    1
    49    25    47    1
    50    26    48    1
    51    26    49    1
@<TRIPOS>SUBSTRUCTURE
     1 <0>         1 TEMP              0 ****  ****    0 ROOT


##########                                Name:    ZINC001271977984
##########                DOCK_Rotatable_Bonds:                   7
##########                         Heavy_Atoms:                  24
##########                    Molecular_Weight:             328.371
##########                DOCK_Rotatable_Bonds:                   7
##########                       Formal_Charge:           0.0200001
##########                     HBond_Acceptors:                   7
##########                        HBond_Donors:                   0
##########                         Heavy_Atoms:                  24
##########                          Grid_Score:          -34.968636
##########                     Grid_vdw_energy:          -34.351696
##########                      Grid_es_energy:           -0.616938
##########           Internal_energy_repulsive:           49.604828

@<TRIPOS>MOLECULE
ZINC001271977984
 44 46 1 0 0
SMALL
USER_CHARGES


@<TRIPOS>ATOM
      1 C1         -9.0481   -3.3433   59.8153 C.3     1  ZINC001271977984   -0.1800
      2 C2        -10.3983   -2.6261   59.8749 C.3     1  ZINC001271977984    0.1700
      3 H3        -11.1919   -3.3578   60.0262 H       1  ZINC001271977984    0.1100
      4 C4        -10.3956   -1.6443   61.0181 C.2     1  ZINC001271977984    0.2700
      5 N5        -11.4083   -0.9098   61.3682 N.2     1  ZINC001271977984   -0.4700
      6 C6        -11.0482   -0.1467   62.4356 C.ar    1  ZINC001271977984    0.0200
      7 C7        -11.7124    0.8046   63.2110 C.ar    1  ZINC001271977984   -0.0600
      8 C8        -11.0528    1.4179   64.2528 C.ar    1  ZINC001271977984   -0.1200
      9 C9         -9.7339    1.0959   64.5355 C.ar    1  ZINC001271977984   -0.0900
     10 C10        -9.0647    0.1578   63.7771 C.ar    1  ZINC001271977984   -0.0900
     11 C11        -9.7134   -0.4697   62.7250 C.ar    1  ZINC001271977984    0.0100
     12 O12        -9.3483   -1.4080   61.8237 O.3     1  ZINC001271977984   -0.2100
     13 N13       -10.6277   -1.9087   58.6137 N.3     1  ZINC001271977984   -0.5300
     14 C14        -9.5487   -0.9470   58.3513 C.3     1  ZINC001271977984    0.0000
     15 C15       -10.7801   -2.8474   57.4941 C.3     1  ZINC001271977984    0.0400
     16 C16       -11.6399   -2.2054   56.4036 C.3     1  ZINC001271977984    0.1200
     17 N17       -11.9836   -3.2124   55.3966 N.am    1  ZINC001271977984   -0.6000
     18 C18       -11.2918   -3.2228   54.1052 C.3     1  ZINC001271977984    0.0800
     19 C19       -12.9362   -4.1293   55.6582 C.2     1  ZINC001271977984    0.6000
     20 O20       -13.2214   -4.9652   54.8222 O.2     1  ZINC001271977984   -0.5300
     21 C21       -13.6322   -4.1189   56.9576 C.2     1  ZINC001271977984   -0.0800
     22 C22       -14.5564   -5.0209   57.3870 C.2     1  ZINC001271977984    0.0200
     23 O23       -14.9314   -4.6408   58.6188 O.3     1  ZINC001271977984   -0.2000
     24 C24       -14.2529   -3.5300   58.9395 C.2     1  ZINC001271977984    0.1800
     25 N25       -13.4673   -3.2089   57.9557 N.2     1  ZINC001271977984   -0.4600
     26 H26        -9.0500   -4.0535   58.9885 H       1  ZINC001271977984    0.0800
     27 H27        -8.2545   -2.6116   59.6640 H       1  ZINC001271977984    0.0800
     28 H28        -8.8779   -3.8757   60.7511 H       1  ZINC001271977984    0.0700
     29 H29       -12.7395    1.0590   62.9948 H       1  ZINC001271977984    0.1400
     30 H30       -11.5659    2.1545   64.8534 H       1  ZINC001271977984    0.1400
     31 H31        -9.2268    1.5835   65.3550 H       1  ZINC001271977984    0.1400
     32 H32        -8.0376   -0.0878   64.0031 H       1  ZINC001271977984    0.1400
     33 H33        -8.5983   -1.4767   58.2842 H       1  ZINC001271977984    0.0300
     34 H34        -9.7435   -0.4298   57.4118 H       1  ZINC001271977984    0.0700
     35 H35        -9.5035   -0.2211   59.1632 H       1  ZINC001271977984    0.1100
     36 H36        -9.7983   -3.0899   57.0871 H       1  ZINC001271977984    0.0500
     37 H37       -11.2622   -3.7590   57.8473 H       1  ZINC001271977984    0.0800
     38 H38       -12.5530   -1.8088   56.8473 H       1  ZINC001271977984    0.0900
     39 H39       -11.0835   -1.3953   55.9321 H       1  ZINC001271977984    0.0900
     40 H40       -10.4610   -3.9273   54.1437 H       1  ZINC001271977984    0.0600
     41 H41       -11.9880   -3.5243   53.3225 H       1  ZINC001271977984    0.0900
     42 H42       -10.9119   -2.2243   53.8885 H       1  ZINC001271977984    0.0700
     43 H43       -14.9194   -5.8788   56.8407 H       1  ZINC001271977984    0.2300
     44 H44       -14.3426   -2.9893   59.8702 H       1  ZINC001271977984    0.2600
@<TRIPOS>BOND
     1     1     2    1
     2     1    26    1
     3     1    27    1
     4     1    28    1
     5     2     3    1
     6     2     4    1
     7     2    13    1
     8     4    12    1
     9     4     5    2
    10     5     6    1
    11     6    11   ar
    12     6     7   ar
    13     7     8   ar
    14     7    29    1
    15     8     9   ar
    16     8    30    1
    17     9    10   ar
    18     9    31    1
    19    10    11   ar
    20    10    32    1
    21    11    12    1
    22    13    14    1
    23    13    15    1
    24    14    33    1
    25    14    34    1
    26    14    35    1
    27    15    16    1
    28    15    36    1
    29    15    37    1
    30    16    17    1
    31    16    38    1
    32    16    39    1
    33    17    18    1
    34    17    19   am
    35    18    40    1
    36    18    41    1
    37    18    42    1
    38    19    20    2
    39    19    21    1
    40    21    25    1
    41    21    22    2
    42    22    23    1
    43    22    43    1
    44    23    24    1
    45    24    25    2
    46    24    44    1
@<TRIPOS>SUBSTRUCTURE
     1 ZINC001271977984        1 TEMP              0 ****  ****    0 ROOT


##########                                Name:    ZINC001120957943
##########                DOCK_Rotatable_Bonds:                   4
##########                         Heavy_Atoms:                  27
##########                    Molecular_Weight:             396.802
##########                DOCK_Rotatable_Bonds:                   4
##########                       Formal_Charge:          -0.0199996
##########                     HBond_Acceptors:                  10
##########                        HBond_Donors:                   0
##########                         Heavy_Atoms:                  27
##########                          Grid_Score:          -34.967911
##########                     Grid_vdw_energy:          -35.823322
##########                      Grid_es_energy:            0.855413
##########           Internal_energy_repulsive:            9.143242

@<TRIPOS>MOLECULE
ZINC001120957943
 43 46 1 0 0
SMALL
USER_CHARGES


@<TRIPOS>ATOM
      1 C1        -10.9109   -5.2344   57.5652 C.3     1  ZINC001120957943    0.0900
      2 N2        -11.4524   -3.9660   58.0595 N.pl3   1  ZINC001120957943   -0.6000
      3 C3        -12.6376   -3.3801   57.4286 C.3     1  ZINC001120957943    0.2200
      4 C4        -12.6232   -3.6840   55.9527 C.2     1  ZINC001120957943    0.1600
      5 N5        -13.1334   -4.7391   55.3710 N.2     1  ZINC001120957943   -0.2500
      6 N6        -12.9389   -4.6715   54.0985 N.2     1  ZINC001120957943   -0.2800
      7 C7        -12.2996   -3.5773   53.8156 C.2     1  ZINC001120957943    0.1700
      8 C8        -11.8510   -3.0734   52.4670 C.3     1  ZINC001120957943   -0.0300
      9 C9        -10.8094   -1.9691   52.6921 C.3     1  ZINC001120957943   -0.1300
     10 C10       -11.3440   -0.9717   53.7240 C.3     1  ZINC001120957943   -0.1500
     11 H11       -12.3473   -0.6561   53.4378 H       1  ZINC001120957943    0.1300
     12 C12       -10.4222    0.2481   53.7787 C.3     1  ZINC001120957943    0.4600
     13 F13        -9.1212   -0.1639   54.0866 F       1  ZINC001120957943   -0.1700
     14 F14       -10.4258    0.8915   52.5363 F       1  ZINC001120957943   -0.1800
     15 F15       -10.8766    1.1322   54.7630 F       1  ZINC001120957943   -0.1800
     16 C16       -11.3924   -1.6370   55.1044 C.3     1  ZINC001120957943    0.1100
     17 N17       -12.0876   -2.9180   54.9828 N.pl3   1  ZINC001120957943   -0.4700
     18 C18       -10.8427   -3.3199   59.1248 C.ar    1  ZINC001120957943    0.3700
     19 C19        -9.5044   -3.6097   59.4430 C.ar    1  ZINC001120957943    0.0500
     20 N20        -8.9114   -3.0086   60.4461 N.ar    1  ZINC001120957943   -0.3900
     21 C21        -9.5837   -2.1098   61.1763 C.ar    1  ZINC001120957943    0.0400
     22 C22        -8.9709   -1.4515   62.2558 C.ar    1  ZINC001120957943   -0.0600
     23 C23        -9.6783   -0.5413   62.9815 C.ar    1  ZINC001120957943   -0.0400
     24 Cl24       -8.9163    0.2691   64.3143 Cl      1  ZINC001120957943   -0.0600
     25 C25       -11.0059   -0.2510   62.6686 C.ar    1  ZINC001120957943   -0.0800
     26 C26       -11.6309   -0.8695   61.6299 C.ar    1  ZINC001120957943   -0.0800
     27 C27       -10.9327   -1.8148   60.8589 C.ar    1  ZINC001120957943    0.1400
     28 N28       -11.5217   -2.4338   59.8284 N.ar    1  ZINC001120957943   -0.4700
     29 H29       -10.1740   -5.0362   56.7867 H       1  ZINC001120957943    0.0700
     30 H30       -10.4363   -5.7715   58.3863 H       1  ZINC001120957943    0.0800
     31 H31       -11.7194   -5.8392   57.1546 H       1  ZINC001120957943    0.0700
     32 H32       -13.5355   -3.8040   57.8782 H       1  ZINC001120957943    0.1200
     33 H33       -12.6320   -2.3003   57.5773 H       1  ZINC001120957943    0.1000
     34 H34       -11.4049   -3.8898   51.8989 H       1  ZINC001120957943    0.1100
     35 H35       -12.7044   -2.6690   51.9228 H       1  ZINC001120957943    0.1000
     36 H36        -9.8835   -2.4116   53.0594 H       1  ZINC001120957943    0.0900
     37 H37       -10.6181   -1.4522   51.7517 H       1  ZINC001120957943    0.1000
     38 H38       -10.3776   -1.8006   55.4672 H       1  ZINC001120957943    0.1000
     39 H39       -11.9327   -0.9955   55.8006 H       1  ZINC001120957943    0.1100
     40 H40        -8.9598   -4.3345   58.8561 H       1  ZINC001120957943    0.1700
     41 H41        -7.9434   -1.6665   62.5093 H       1  ZINC001120957943    0.1500
     42 H42       -11.5458    0.4746   63.2590 H       1  ZINC001120957943    0.1400
     43 H43       -12.6597   -0.6352   61.3991 H       1  ZINC001120957943    0.1500
@<TRIPOS>BOND
     1     1     2    1
     2     1    29    1
     3     1    30    1
     4     1    31    1
     5     2     3    1
     6     2    18    1
     7     3     4    1
     8     3    32    1
     9     3    33    1
    10     4    17    1
    11     4     5    2
    12     5     6    1
    13     6     7    2
    14     7    17    1
    15     7     8    1
    16     8     9    1
    17     8    34    1
    18     8    35    1
    19     9    10    1
    20     9    36    1
    21     9    37    1
    22    10    11    1
    23    10    12    1
    24    10    16    1
    25    12    13    1
    26    12    14    1
    27    12    15    1
    28    16    17    1
    29    16    38    1
    30    16    39    1
    31    18    28   ar
    32    18    19   ar
    33    19    20   ar
    34    19    40    1
    35    20    21   ar
    36    21    27   ar
    37    21    22   ar
    38    22    23   ar
    39    22    41    1
    40    23    24    1
    41    23    25   ar
    42    25    26   ar
    43    25    42    1
    44    26    27   ar
    45    26    43    1
    46    27    28   ar
@<TRIPOS>SUBSTRUCTURE
     1 ZINC001120957943        1 TEMP              0 ****  ****    0 ROOT


##########                                Name:    ZINC000980108339
##########                DOCK_Rotatable_Bonds:                   9
##########                         Heavy_Atoms:                  25
##########                    Molecular_Weight:             348.445
##########                DOCK_Rotatable_Bonds:                   9
##########                       Formal_Charge:          -0.0100001
##########                     HBond_Acceptors:                   7
##########                        HBond_Donors:                   3
##########                         Heavy_Atoms:                  25
##########                          Grid_Score:          -34.957714
##########                     Grid_vdw_energy:          -34.710838
##########                      Grid_es_energy:           -0.246875
##########           Internal_energy_repulsive:            8.193307

@<TRIPOS>MOLECULE
ZINC000980108339
 53 56 1 0 0
SMALL
USER_CHARGES


@<TRIPOS>ATOM
      1 C1        -10.3565   -0.3031   62.2969 C.3     1  ZINC000980108339    0.1200
      2 N2         -9.7893   -0.9753   61.1252 N.am    1  ZINC000980108339   -0.6400
      3 C3         -9.2449   -2.3412   61.1071 C.3     1  ZINC000980108339    0.1100
      4 C4         -8.7912   -2.5384   59.6476 C.3     1  ZINC000980108339    0.1000
      5 H5         -7.7172   -2.7190   59.6018 H       1  ZINC000980108339    0.1200
      6 C6         -9.5451   -3.6761   59.0085 C.2     1  ZINC000980108339    0.5000
      7 O7         -9.2010   -4.8212   59.2112 O.2     1  ZINC000980108339   -0.5200
      8 N8        -10.6017   -3.4209   58.2118 N.am    1  ZINC000980108339   -0.7200
      9 C9        -11.3336   -4.5267   57.5892 C.3     1  ZINC000980108339    0.1300
     10 C10       -12.1821   -3.9907   56.4343 C.3     1  ZINC000980108339   -0.1200
     11 H11       -11.5907   -3.4713   55.6802 H       1  ZINC000980108339    0.1000
     12 C12       -13.1518   -5.0303   55.8481 C.3     1  ZINC000980108339   -0.1400
     13 C13       -14.1840   -3.8947   55.7472 C.3     1  ZINC000980108339    0.1200
     14 H14       -15.1956   -4.1991   56.0153 H       1  ZINC000980108339    0.1100
     15 N15       -14.1274   -3.1614   54.4802 N.am    1  ZINC000980108339   -0.7200
     16 C16       -15.1920   -2.4449   54.0683 C.2     1  ZINC000980108339    0.5200
     17 O17       -16.1964   -2.4061   54.7472 O.2     1  ZINC000980108339   -0.5300
     18 C18       -15.1346   -1.6919   52.7641 C.3     1  ZINC000980108339   -0.1100
     19 C19       -13.8170   -0.9190   52.6790 C.3     1  ZINC000980108339   -0.1300
     20 H20       -13.4936   -0.4379   53.6021 H       1  ZINC000980108339    0.1200
     21 C21       -13.4995   -0.2068   51.3625 C.3     1  ZINC000980108339   -0.1700
     22 C22       -12.7319   -1.4723   51.7531 C.3     1  ZINC000980108339   -0.1200
     23 H23       -12.9568   -2.3868   51.2043 H       1  ZINC000980108339    0.1000
     24 C24       -11.2758   -1.3078   52.1929 C.3     1  ZINC000980108339   -0.1300
     25 C25       -10.9625   -1.4866   53.6799 C.3     1  ZINC000980108339   -0.1800
     26 C26       -10.5375   -2.5585   52.6741 C.3     1  ZINC000980108339   -0.1800
     27 C27       -13.4218   -3.2052   56.8934 C.3     1  ZINC000980108339   -0.1400
     28 N28        -9.1282   -1.2627   58.9984 N.am    1  ZINC000980108339   -0.7200
     29 C29        -9.6896   -0.4454   59.8991 C.2     1  ZINC000980108339    0.7000
     30 O30       -10.0660    0.6790   59.6300 O.2     1  ZINC000980108339   -0.5800
     31 H31       -10.6858    0.6978   62.0176 H       1  ZINC000980108339    0.0900
     32 H32       -11.2072   -0.8751   62.6676 H       1  ZINC000980108339    0.0600
     33 H33        -9.5988   -0.2318   63.0771 H       1  ZINC000980108339    0.0600
     34 H34        -8.3961   -2.4238   61.7860 H       1  ZINC000980108339    0.1000
     35 H35       -10.0172   -3.0644   61.3687 H       1  ZINC000980108339    0.0900
     36 H36       -10.8778   -2.5050   58.0506 H       1  ZINC000980108339    0.4000
     37 H37       -10.6253   -5.2625   57.2085 H       1  ZINC000980108339    0.0700
     38 H38       -11.9821   -4.9956   58.3292 H       1  ZINC000980108339    0.0700
     39 H39       -12.8387   -5.4230   54.8807 H       1  ZINC000980108339    0.0800
     40 H40       -13.4314   -5.8130   56.5534 H       1  ZINC000980108339    0.1000
     41 H41       -13.3238   -3.1914   53.9379 H       1  ZINC000980108339    0.4000
     42 H42       -15.1967   -2.3965   51.9347 H       1  ZINC000980108339    0.1000
     43 H43       -15.9697   -0.9934   52.7108 H       1  ZINC000980108339    0.1000
     44 H44       -14.2294   -0.2890   50.5571 H       1  ZINC000980108339    0.0900
     45 H45       -12.9669    0.7425   51.4196 H       1  ZINC000980108339    0.1000
     46 H46       -10.6997   -0.5637   51.6428 H       1  ZINC000980108339    0.1000
     47 H47       -10.1802   -0.8600   54.1083 H       1  ZINC000980108339    0.0900
     48 H48       -11.7937   -1.7215   54.3445 H       1  ZINC000980108339    0.0900
     49 H49       -11.0892   -3.4986   52.6772 H       1  ZINC000980108339    0.0900
     50 H50        -9.4757   -2.6370   52.4409 H       1  ZINC000980108339    0.0900
     51 H51       -13.7748   -3.4886   57.8850 H       1  ZINC000980108339    0.1000
     52 H52       -13.3281   -2.1265   56.7687 H       1  ZINC000980108339    0.0800
     53 H53        -8.9725   -1.0486   58.0652 H       1  ZINC000980108339    0.4400
@<TRIPOS>BOND
     1     1     2    1
     2     1    31    1
     3     1    32    1
     4     1    33    1
     5     2    29   am
     6     2     3    1
     7     3     4    1
     8     3    34    1
     9     3    35    1
    10     4     5    1
    11     4     6    1
    12     4    28    1
    13     6     7    2
    14     6     8   am
    15     8     9    1
    16     8    36    1
    17     9    10    1
    18     9    37    1
    19     9    38    1
    20    10    11    1
    21    10    27    1
    22    10    12    1
    23    12    13    1
    24    12    39    1
    25    12    40    1
    26    13    14    1
    27    13    15    1
    28    13    27    1
    29    15    16   am
    30    15    41    1
    31    16    17    2
    32    16    18    1
    33    18    19    1
    34    18    42    1
    35    18    43    1
    36    19    20    1
    37    19    22    1
    38    19    21    1
    39    21    22    1
    40    21    44    1
    41    21    45    1
    42    22    23    1
    43    22    24    1
    44    24    26    1
    45    24    25    1
    46    24    46    1
    47    25    26    1
    48    25    47    1
    49    25    48    1
    50    26    49    1
    51    26    50    1
    52    27    51    1
    53    27    52    1
    54    28    29   am
    55    28    53    1
    56    29    30    2
@<TRIPOS>SUBSTRUCTURE
     1 ZINC000980108339        1 TEMP              0 ****  ****    0 ROOT


##########                                Name:    ZINC000807524472
##########                DOCK_Rotatable_Bonds:                   9
##########                         Heavy_Atoms:                  28
##########                    Molecular_Weight:             410.534
##########                DOCK_Rotatable_Bonds:                   9
##########                       Formal_Charge:           0.0200006
##########                     HBond_Acceptors:                   8
##########                        HBond_Donors:                   0
##########                         Heavy_Atoms:                  28
##########                          Grid_Score:          -34.951015
##########                     Grid_vdw_energy:          -33.829674
##########                      Grid_es_energy:           -1.121343
##########           Internal_energy_repulsive:           15.343830

@<TRIPOS>MOLECULE
ZINC000807524472
 58 60 1 0 0
SMALL
USER_CHARGES


@<TRIPOS>ATOM
      1 C1        -15.2962   -0.2457   61.8796 C.3     1  ZINC000807524472   -0.1500
      2 C2        -14.6173   -1.5817   61.5708 C.3     1  ZINC000807524472    0.0600
      3 O3        -15.0569   -2.0560   60.2965 O.3     1  ZINC000807524472   -0.3800
      4 C4        -14.4712   -3.2995   59.9055 C.3     1  ZINC000807524472    0.0600
      5 C5        -15.0783   -3.7538   58.5767 C.3     1  ZINC000807524472    0.0700
      6 O6        -14.4367   -4.9833   58.1467 O.3     1  ZINC000807524472   -0.3500
      7 C7        -13.5925   -4.8993   57.0996 C.2     1  ZINC000807524472    0.5000
      8 O8        -13.4980   -5.8264   56.3196 O.2     1  ZINC000807524472   -0.4600
      9 C9        -12.7845   -3.6840   56.9006 C.ar    1  ZINC000807524472   -0.1200
     10 C10       -11.7590   -3.3669   57.7956 C.ar    1  ZINC000807524472    0.0400
     11 C11       -11.0067   -2.2289   57.6033 C.ar    1  ZINC000807524472   -0.7000
     12 S12        -9.7141   -1.8320   58.7330 S.o2    1  ZINC000807524472    2.6900
     13 O13        -9.2518   -3.0665   59.2636 O.2     1  ZINC000807524472   -0.9500
     14 O14        -8.8669   -0.9074   58.0647 O.2     1  ZINC000807524472   -0.9500
     15 N15       -10.4014   -1.0087   59.9948 N.am    1  ZINC000807524472   -0.9900
     16 C16       -10.3085   -1.5274   61.3662 C.3     1  ZINC000807524472    0.1200
     17 C17        -9.7299   -0.4335   62.2692 C.3     1  ZINC000807524472   -0.1400
     18 C18       -10.5751    0.8350   62.1328 C.3     1  ZINC000807524472   -0.1200
     19 C19       -10.5277    1.3285   60.6850 C.3     1  ZINC000807524472   -0.1400
     20 C20       -11.1103    0.2576   59.7649 C.3     1  ZINC000807524472    0.1200
     21 C21       -11.2609   -1.3949   56.5261 C.ar    1  ZINC000807524472    0.0200
     22 C22       -12.2699   -1.6935   55.6336 C.ar    1  ZINC000807524472   -0.1800
     23 C23       -13.0359   -2.8394   55.8069 C.ar    1  ZINC000807524472    0.2000
     24 N24       -14.0515   -3.1424   54.9101 N.3     1  ZINC000807524472   -0.4800
     25 C25       -15.0785   -2.0696   54.8867 C.3     1  ZINC000807524472    0.0400
     26 C26       -15.7935   -2.2927   53.5304 C.3     1  ZINC000807524472   -0.1200
     27 C27       -14.6361   -2.7088   52.5938 C.3     1  ZINC000807524472   -0.1300
     28 C28       -13.5299   -3.2315   53.5290 C.3     1  ZINC000807524472    0.0400
     29 H29       -16.3774   -0.3828   61.8961 H       1  ZINC000807524472    0.0600
     30 H30       -14.9609    0.1161   62.8514 H       1  ZINC000807524472    0.0700
     31 H31       -15.0339    0.4813   61.1109 H       1  ZINC000807524472    0.0700
     32 H32       -13.5361   -1.4445   61.5541 H       1  ZINC000807524472    0.0500
     33 H33       -14.8796   -2.3087   62.3394 H       1  ZINC000807524472    0.0500
     34 H34       -13.3948   -3.1733   59.7889 H       1  ZINC000807524472    0.0600
     35 H35       -14.6682   -4.0504   60.6706 H       1  ZINC000807524472    0.0700
     36 H36       -16.1466   -3.9273   58.7058 H       1  ZINC000807524472    0.0900
     37 H37       -14.9241   -2.9810   57.8236 H       1  ZINC000807524472    0.0800
     38 H38       -11.5568   -4.0129   58.6370 H       1  ZINC000807524472    0.1600
     39 H39       -11.3015   -1.8056   61.7196 H       1  ZINC000807524472    0.0800
     40 H40        -9.6547   -2.3994   61.3836 H       1  ZINC000807524472    0.0900
     41 H41        -9.7452   -0.7712   63.3054 H       1  ZINC000807524472    0.0800
     42 H42        -8.7034   -0.2205   61.9704 H       1  ZINC000807524472    0.0700
     43 H43       -11.6067    0.6152   62.4079 H       1  ZINC000807524472    0.0700
     44 H44       -10.1801    1.6073   62.7928 H       1  ZINC000807524472    0.0700
     45 H45       -11.1108    2.2448   60.5936 H       1  ZINC000807524472    0.0800
     46 H46        -9.4937    1.5248   60.4012 H       1  ZINC000807524472    0.0700
     47 H47       -10.9881    0.5629   58.7257 H       1  ZINC000807524472    0.0900
     48 H48       -12.1689    0.1223   59.9861 H       1  ZINC000807524472    0.0800
     49 H49       -10.6653   -0.5051   56.3844 H       1  ZINC000807524472    0.1500
     50 H50       -12.4617   -1.0380   54.7969 H       1  ZINC000807524472    0.1400
     51 H51       -15.7778   -2.1882   55.7144 H       1  ZINC000807524472    0.0900
     52 H52       -14.6086   -1.0865   54.9166 H       1  ZINC000807524472    0.0500
     53 H53       -16.5312   -3.0913   53.6102 H       1  ZINC000807524472    0.0800
     54 H54       -16.2583   -1.3701   53.1830 H       1  ZINC000807524472    0.0800
     55 H55       -14.9627   -3.4977   51.9162 H       1  ZINC000807524472    0.0800
     56 H56       -14.2785   -1.8479   52.0290 H       1  ZINC000807524472    0.0700
     57 H57       -12.6368   -2.6146   53.4288 H       1  ZINC000807524472    0.0500
     58 H58       -13.2976   -4.2683   53.2860 H       1  ZINC000807524472    0.0900
@<TRIPOS>BOND
     1     1     2    1
     2     1    29    1
     3     1    30    1
     4     1    31    1
     5     2     3    1
     6     2    32    1
     7     2    33    1
     8     3     4    1
     9     4     5    1
    10     4    34    1
    11     4    35    1
    12     5     6    1
    13     5    36    1
    14     5    37    1
    15     6     7    1
    16     7     8    2
    17     7     9    1
    18     9    23   ar
    19     9    10   ar
    20    10    11   ar
    21    10    38    1
    22    11    12    1
    23    11    21   ar
    24    12    13    2
    25    12    14    2
    26    12    15   am
    27    15    20    1
    28    15    16    1
    29    16    17    1
    30    16    39    1
    31    16    40    1
    32    17    18    1
    33    17    41    1
    34    17    42    1
    35    18    19    1
    36    18    43    1
    37    18    44    1
    38    19    20    1
    39    19    45    1
    40    19    46    1
    41    20    47    1
    42    20    48    1
    43    21    22   ar
    44    21    49    1
    45    22    23   ar
    46    22    50    1
    47    23    24    1
    48    24    28    1
    49    24    25    1
    50    25    26    1
    51    25    51    1
    52    25    52    1
    53    26    27    1
    54    26    53    1
    55    26    54    1
    56    27    28    1
    57    27    55    1
    58    27    56    1
    59    28    57    1
    60    28    58    1
@<TRIPOS>SUBSTRUCTURE
     1 ZINC000807524472        1 TEMP              0 ****  ****    0 ROOT


##########                                Name:    ZINC000957079511
##########                DOCK_Rotatable_Bonds:                   8
##########                         Heavy_Atoms:                  25
##########                    Molecular_Weight:             362.453
##########                DOCK_Rotatable_Bonds:                   8
##########                       Formal_Charge:        -4.32134e-07
##########                     HBond_Acceptors:                   8
##########                        HBond_Donors:                   2
##########                         Heavy_Atoms:                  25
##########                          Grid_Score:          -34.950523
##########                     Grid_vdw_energy:          -34.325294
##########                      Grid_es_energy:           -0.625230
##########           Internal_energy_repulsive:           17.185156

@<TRIPOS>MOLECULE
ZINC000957079511
 47 49 1 0 0
SMALL
USER_CHARGES


@<TRIPOS>ATOM
      1 C1         -6.9032    2.2528   65.6793 C.3     1  ZINC000957079511   -0.0700
      2 C2         -8.4023    2.2417   65.5250 C.2     1  ZINC000957079511    0.0300
      3 C3         -9.1302    1.2733   64.9371 C.2     1  ZINC000957079511   -0.0200
      4 C4         -8.6032    0.0063   64.3140 C.3     1  ZINC000957079511   -0.0600
      5 C5         -9.5141   -0.4176   63.1908 C.2     1  ZINC000957079511    0.5100
      6 O6        -10.6966   -0.1521   63.2358 O.2     1  ZINC000957079511   -0.5200
      7 N7         -9.0146   -1.0921   62.1362 N.am    1  ZINC000957079511   -0.7200
      8 C8         -9.9003   -1.5058   61.0451 C.3     1  ZINC000957079511    0.1400
      9 H9        -10.9396   -1.5218   61.3731 H       1  ZINC000957079511    0.1100
     10 C10        -9.4759   -2.8833   60.4774 C.3     1  ZINC000957079511    0.0800
     11 N11        -9.9861   -2.8949   59.0943 N.am    1  ZINC000957079511   -0.6200
     12 C12       -10.2687   -3.9962   58.3706 C.2     1  ZINC000957079511    0.5400
     13 O13       -10.1046   -5.0970   58.8524 O.2     1  ZINC000957079511   -0.5100
     14 C14       -10.7885   -3.8598   56.9627 C.3     1  ZINC000957079511    0.0500
     15 O15       -12.2174   -3.8439   56.9819 O.3     1  ZINC000957079511   -0.2800
     16 C16       -12.8508   -3.7264   55.7817 C.2     1  ZINC000957079511    0.1200
     17 C17       -12.1888   -3.6350   54.6245 C.2     1  ZINC000957079511   -0.3300
     18 S18       -13.3353   -3.4973   53.2979 S.3     1  ZINC000957079511    0.1300
     19 C19       -14.6888   -3.5736   54.4183 C.2     1  ZINC000957079511   -0.1800
     20 C20       -14.2323   -3.6983   55.6659 C.2     1  ZINC000957079511   -0.1400
     21 C21       -10.1365   -1.5062   58.6356 C.3     1  ZINC000957079511    0.1100
     22 C22        -9.7223   -0.5890   59.8061 C.3     1  ZINC000957079511   -0.1100
     23 H23        -8.6825   -0.2782   59.7033 H       1  ZINC000957079511    0.0900
     24 C24       -10.6435    0.6297   59.8911 C.3     1  ZINC000957079511   -0.1400
     25 N25       -10.4408    1.6605   65.0145 N.pl3   1  ZINC000957079511   -0.5600
     26 C26       -10.4681    2.8531   65.6476 C.2     1  ZINC000957079511    0.2000
     27 N27        -9.2459    3.1921   65.9544 N.2     1  ZINC000957079511   -0.4900
     28 H28        -6.6310    1.7697   66.6177 H       1  ZINC000957079511    0.0700
     29 H29        -6.4484    1.7141   64.8481 H       1  ZINC000957079511    0.0600
     30 H30        -6.5460    3.2826   65.6839 H       1  ZINC000957079511    0.0700
     31 H31        -7.6015    0.1834   63.9223 H       1  ZINC000957079511    0.1000
     32 H32        -8.5649   -0.7804   65.0674 H       1  ZINC000957079511    0.1200
     33 H33        -8.0685   -1.3034   62.0995 H       1  ZINC000957079511    0.4000
     34 H34        -8.3899   -2.9771   60.4819 H       1  ZINC000957079511    0.0800
     35 H35        -9.9294   -3.6881   61.0558 H       1  ZINC000957079511    0.0800
     36 H36       -10.4208   -2.9303   56.5281 H       1  ZINC000957079511    0.0900
     37 H37       -10.4426   -4.7026   56.3644 H       1  ZINC000957079511    0.0900
     38 H38       -11.1139   -3.6438   54.5198 H       1  ZINC000957079511    0.1700
     39 H39       -15.7310   -3.5305   54.1386 H       1  ZINC000957079511    0.1800
     40 H40       -14.8887   -3.7644   56.5210 H       1  ZINC000957079511    0.1500
     41 H41        -9.4892   -1.3273   57.7770 H       1  ZINC000957079511    0.0800
     42 H42       -11.1751   -1.3154   58.3656 H       1  ZINC000957079511    0.0800
     43 H43       -11.6734    0.2980   60.0235 H       1  ZINC000957079511    0.0600
     44 H44       -10.3494    1.2490   60.7385 H       1  ZINC000957079511    0.0600
     45 H45       -10.5639    1.2100   58.9719 H       1  ZINC000957079511    0.0700
     46 H46       -11.2068    1.1701   64.6776 H       1  ZINC000957079511    0.4200
     47 H47       -11.3550    3.4290   65.8673 H       1  ZINC000957079511    0.2100
@<TRIPOS>BOND
     1     1     2    1
     2     1    28    1
     3     1    29    1
     4     1    30    1
     5     2    27    1
     6     2     3    2
     7     3     4    1
     8     3    25    1
     9     4     5    1
    10     4    31    1
    11     4    32    1
    12     5     6    2
    13     5     7   am
    14     7     8    1
    15     7    33    1
    16     8     9    1
    17     8    22    1
    18     8    10    1
    19    10    11    1
    20    10    34    1
    21    10    35    1
    22    11    12   am
    23    11    21    1
    24    12    13    2
    25    12    14    1
    26    14    15    1
    27    14    36    1
    28    14    37    1
    29    15    16    1
    30    16    20    1
    31    16    17    2
    32    17    18    1
    33    17    38    1
    34    18    19    1
    35    19    20    2
    36    19    39    1
    37    20    40    1
    38    21    22    1
    39    21    41    1
    40    21    42    1
    41    22    23    1
    42    22    24    1
    43    24    43    1
    44    24    44    1
    45    24    45    1
    46    25    26    1
    47    25    46    1
    48    26    27    2
    49    26    47    1
@<TRIPOS>SUBSTRUCTURE
     1 ZINC000957079511        1 TEMP              0 ****  ****    0 ROOT


##########                                Name:    ZINC000826435081
##########                DOCK_Rotatable_Bonds:                   7
##########                         Heavy_Atoms:                  28
##########                    Molecular_Weight:             388.361
##########                DOCK_Rotatable_Bonds:                   7
##########                       Formal_Charge:           0.0099996
##########                     HBond_Acceptors:                  12
##########                        HBond_Donors:                   3
##########                         Heavy_Atoms:                  28
##########                          Grid_Score:          -34.946709
##########                     Grid_vdw_energy:          -34.973457
##########                      Grid_es_energy:            0.026751
##########           Internal_energy_repulsive:            9.385031

@<TRIPOS>MOLECULE
ZINC000826435081
 45 48 1 0 0
SMALL
USER_CHARGES


@<TRIPOS>ATOM
      1 O1        -12.9377   -4.2417   57.4363 O.2     1  ZINC000826435081   -0.5700
      2 C2        -13.7664   -3.5057   56.9361 C.2     1  ZINC000826435081    0.7200
      3 N3        -14.0928   -3.6436   55.6358 N.am    1  ZINC000826435081   -0.7300
      4 C4        -13.4448   -4.6760   54.8233 C.3     1  ZINC000826435081    0.1500
      5 C5        -12.4062   -4.0266   53.9067 C.3     1  ZINC000826435081    0.0400
      6 H6        -11.9432   -4.7906   53.2820 H       1  ZINC000826435081    0.0800
      7 C7        -11.3325   -3.3397   54.7555 C.3     1  ZINC000826435081    0.0300
      8 O8        -10.4284   -2.6415   53.8939 O.3     1  ZINC000826435081   -0.3800
      9 C9        -11.0663   -1.6658   53.0644 C.3     1  ZINC000826435081    0.0200
     10 C10       -12.1400   -2.3527   52.2154 C.3     1  ZINC000826435081    0.0200
     11 O11       -13.0443   -3.0520   53.0760 O.3     1  ZINC000826435081   -0.3700
     12 N12       -14.3626   -2.5558   57.6836 N.am    1  ZINC000826435081   -0.6400
     13 C13       -14.0232   -2.4124   59.0354 C.2     1  ZINC000826435081    0.3300
     14 N14       -13.3178   -1.4339   59.5521 N.2     1  ZINC000826435081   -0.2800
     15 N15       -13.2022   -1.6575   60.9301 N.pl3   1  ZINC000826435081   -0.3300
     16 C16       -12.5246   -0.8412   61.8426 C.ar    1  ZINC000826435081    0.2200
     17 C17       -13.2368   -0.0238   62.7075 C.ar    1  ZINC000826435081   -0.1300
     18 C18       -12.5672    0.7822   63.6085 C.ar    1  ZINC000826435081   -0.0500
     19 C19       -11.1848    0.7804   63.6543 C.ar    1  ZINC000826435081   -0.1500
     20 C20       -10.4607   -0.0293   62.7982 C.ar    1  ZINC000826435081    0.1500
     21 F21        -9.1106   -0.0285   62.8465 F       1  ZINC000826435081   -0.1100
     22 C22       -11.1265   -0.8510   61.8896 C.ar    1  ZINC000826435081   -0.0500
     23 C23       -10.3556   -1.7219   60.9686 C.2     1  ZINC000826435081    0.2100
     24 N24       -10.3538   -3.0402   60.9480 N.2     1  ZINC000826435081   -0.2800
     25 N25        -9.5596   -3.4187   60.0063 N.pl3   1  ZINC000826435081   -0.2300
     26 N26        -9.0583   -2.3827   59.4297 N.2     1  ZINC000826435081   -0.0500
     27 N27        -9.5296   -1.3215   59.9912 N.2     1  ZINC000826435081   -0.2300
     28 C28       -13.8640   -2.8064   61.2240 C.2     1  ZINC000826435081    0.0700
     29 C29       -14.3846   -3.2882   60.0726 C.2     1  ZINC000826435081   -0.2400
     30 H30       -14.7569   -3.0591   55.2378 H       1  ZINC000826435081    0.4000
     31 H31       -12.9529   -5.3968   55.4765 H       1  ZINC000826435081    0.0800
     32 H32       -14.1946   -5.1864   54.2186 H       1  ZINC000826435081    0.0900
     33 H33       -11.8046   -2.6328   55.4378 H       1  ZINC000826435081    0.0700
     34 H34       -10.7853   -4.0892   55.3272 H       1  ZINC000826435081    0.1100
     35 H35       -11.5296   -0.9027   53.6897 H       1  ZINC000826435081    0.0600
     36 H36       -10.3264   -1.2032   52.4112 H       1  ZINC000826435081    0.1100
     37 H37       -12.6872   -1.6032   51.6438 H       1  ZINC000826435081    0.1100
     38 H38       -11.6679   -3.0596   51.5332 H       1  ZINC000826435081    0.0600
     39 H39       -15.0266   -1.9713   57.2856 H       1  ZINC000826435081    0.4100
     40 H40       -14.3163   -0.0169   62.6766 H       1  ZINC000826435081    0.1500
     41 H41       -13.1262    1.4171   64.2800 H       1  ZINC000826435081    0.1500
     42 H42       -10.6691    1.4138   64.3609 H       1  ZINC000826435081    0.1500
     43 H43        -9.3694   -4.3398   59.7692 H       1  ZINC000826435081    0.4800
     44 H44       -13.9612   -3.2529   62.2027 H       1  ZINC000826435081    0.1800
     45 H45       -14.9684   -4.1907   59.9678 H       1  ZINC000826435081    0.1800
@<TRIPOS>BOND
     1     1     2    2
     2     2     3   am
     3     2    12   am
     4     3     4    1
     5     3    30    1
     6     4     5    1
     7     4    31    1
     8     4    32    1
     9     5     6    1
    10     5    11    1
    11     5     7    1
    12     7     8    1
    13     7    33    1
    14     7    34    1
    15     8     9    1
    16     9    10    1
    17     9    35    1
    18     9    36    1
    19    10    11    1
    20    10    37    1
    21    10    38    1
    22    12    13    1
    23    12    39    1
    24    13    29    1
    25    13    14    2
    26    14    15    1
    27    15    16    1
    28    15    28    1
    29    16    22   ar
    30    16    17   ar
    31    17    18   ar
    32    17    40    1
    33    18    19   ar
    34    18    41    1
    35    19    20   ar
    36    19    42    1
    37    20    21    1
    38    20    22   ar
    39    22    23    1
    40    23    27    1
    41    23    24    2
    42    24    25    1
    43    25    26    1
    44    25    43    1
    45    26    27    2
    46    28    29    2
    47    28    44    1
    48    29    45    1
@<TRIPOS>SUBSTRUCTURE
     1 ZINC000826435081        1 TEMP              0 ****  ****    0 ROOT


##########                                Name:    ZINC000124554441
##########                DOCK_Rotatable_Bonds:                   9
##########                         Heavy_Atoms:                  26
##########                    Molecular_Weight:             375.898
##########                DOCK_Rotatable_Bonds:                   9
##########                       Formal_Charge:         -0.00999991
##########                     HBond_Acceptors:                   6
##########                        HBond_Donors:                   1
##########                         Heavy_Atoms:                  26
##########                          Grid_Score:          -34.916695
##########                     Grid_vdw_energy:          -35.011253
##########                      Grid_es_energy:            0.094561
##########           Internal_energy_repulsive:           11.324333

@<TRIPOS>MOLECULE
ZINC000124554441
 52 53 1 0 0
SMALL
USER_CHARGES


@<TRIPOS>ATOM
      1 C1        -10.0262    1.2123   64.2865 C.3     1  ZINC000124554441   -0.1500
      2 C2         -9.2810    0.1623   63.4600 C.3     1  ZINC000124554441   -0.1300
      3 C3        -10.2274   -0.4282   62.4128 C.3     1  ZINC000124554441   -0.1200
      4 C4         -9.4930   -1.5045   61.6109 C.3     1  ZINC000124554441   -0.1200
      5 C5        -10.4336   -2.0817   60.5512 C.3     1  ZINC000124554441   -0.1300
      6 C6         -9.6768   -3.1025   59.6991 C.3     1  ZINC000124554441    0.1200
      7 N7        -10.4888   -3.4646   58.5348 N.am    1  ZINC000124554441   -0.7300
      8 C8        -10.4376   -2.7129   57.4172 C.2     1  ZINC000124554441    0.5200
      9 O9         -9.7203   -1.7359   57.3761 O.2     1  ZINC000124554441   -0.5300
     10 C10       -11.2715   -3.0865   56.2189 C.3     1  ZINC000124554441   -0.1200
     11 H11       -10.7150   -3.7821   55.5909 H       1  ZINC000124554441    0.1000
     12 C12       -12.5703   -3.7473   56.6864 C.3     1  ZINC000124554441   -0.1000
     13 C13       -13.4031   -4.1568   55.4695 C.3     1  ZINC000124554441   -0.1400
     14 C14       -13.7612   -2.9082   54.6573 C.3     1  ZINC000124554441    0.0900
     15 N15       -12.5238   -2.1880   54.3270 N.am    1  ZINC000124554441   -0.6000
     16 C16       -12.2368   -1.8655   53.0504 C.2     1  ZINC000124554441    0.5600
     17 O17       -13.0049   -2.1704   52.1591 O.2     1  ZINC000124554441   -0.5200
     18 C18       -10.9870   -1.1403   52.7337 C.ar    1  ZINC000124554441   -0.0900
     19 C19        -9.8370   -1.8511   52.3851 C.ar    1  ZINC000124554441   -0.0900
     20 C20        -8.6727   -1.1771   52.0901 C.ar    1  ZINC000124554441   -0.0600
     21 C21        -8.6416    0.2182   52.1399 C.ar    1  ZINC000124554441    0.0100
     22 C22        -7.4312    0.9193   51.8333 C.1     1  ZINC000124554441    0.2400
     23 N23        -6.4708    1.4753   51.5899 N.1     1  ZINC000124554441   -0.3800
     24 C24        -9.7930    0.9306   52.4890 C.ar    1  ZINC000124554441    0.0000
     25 Cl25       -9.7560    2.6651   52.5508 Cl      1  ZINC000124554441   -0.0400
     26 C26       -10.9595    0.2547   52.7781 C.ar    1  ZINC000124554441   -0.0600
     27 C27       -11.6047   -1.8258   55.4148 C.3     1  ZINC000124554441    0.1200
     28 H28       -10.3822    2.0061   63.6297 H       1  ZINC000124554441    0.0500
     29 H29       -10.8753    0.7459   64.7860 H       1  ZINC000124554441    0.0500
     30 H30        -9.3520    1.6330   65.0325 H       1  ZINC000124554441    0.0500
     31 H31        -8.4319    0.6287   62.9604 H       1  ZINC000124554441    0.0600
     32 H32        -8.9251   -0.6315   64.1167 H       1  ZINC000124554441    0.0600
     33 H33       -11.0897   -0.8713   62.9111 H       1  ZINC000124554441    0.0600
     34 H34       -10.5626    0.3610   61.7398 H       1  ZINC000124554441    0.0600
     35 H35        -8.6231   -1.0643   61.1234 H       1  ZINC000124554441    0.0700
     36 H36        -9.1696   -2.3002   62.2818 H       1  ZINC000124554441    0.0700
     37 H37       -11.2761   -2.5704   61.0406 H       1  ZINC000124554441    0.0700
     38 H38       -10.8004   -1.2772   59.9139 H       1  ZINC000124554441    0.0700
     39 H39        -8.7345   -2.6689   59.3642 H       1  ZINC000124554441    0.0700
     40 H40        -9.4757   -3.9940   60.2932 H       1  ZINC000124554441    0.0700
     41 H41       -11.0635   -4.2454   58.5681 H       1  ZINC000124554441    0.4000
     42 H42       -12.3350   -4.6311   57.2795 H       1  ZINC000124554441    0.0800
     43 H43       -13.1378   -3.0429   57.2945 H       1  ZINC000124554441    0.0800
     44 H44       -12.8267   -4.8422   54.8481 H       1  ZINC000124554441    0.0700
     45 H45       -14.3171   -4.6483   55.8029 H       1  ZINC000124554441    0.0900
     46 H46       -14.2686   -3.2029   53.7388 H       1  ZINC000124554441    0.1000
     47 H47       -14.4130   -2.2634   55.2467 H       1  ZINC000124554441    0.0800
     48 H48        -9.8603   -2.9302   52.3472 H       1  ZINC000124554441    0.1500
     49 H49        -7.7836   -1.7277   51.8206 H       1  ZINC000124554441    0.1500
     50 H50       -11.8493    0.8041   53.0478 H       1  ZINC000124554441    0.1500
     51 H51       -12.0804   -1.0928   56.0663 H       1  ZINC000124554441    0.0800
     52 H52       -10.6900   -1.4064   54.9958 H       1  ZINC000124554441    0.1000
@<TRIPOS>BOND
     1     1     2    1
     2     1    28    1
     3     1    29    1
     4     1    30    1
     5     2     3    1
     6     2    31    1
     7     2    32    1
     8     3     4    1
     9     3    33    1
    10     3    34    1
    11     4     5    1
    12     4    35    1
    13     4    36    1
    14     5     6    1
    15     5    37    1
    16     5    38    1
    17     6     7    1
    18     6    39    1
    19     6    40    1
    20     7     8   am
    21     7    41    1
    22     8     9    2
    23     8    10    1
    24    10    11    1
    25    10    27    1
    26    10    12    1
    27    12    13    1
    28    12    42    1
    29    12    43    1
    30    13    14    1
    31    13    44    1
    32    13    45    1
    33    14    15    1
    34    14    46    1
    35    14    47    1
    36    15    16   am
    37    15    27    1
    38    16    17    2
    39    16    18    1
    40    18    26   ar
    41    18    19   ar
    42    19    20   ar
    43    19    48    1
    44    20    21   ar
    45    20    49    1
    46    21    22    1
    47    21    24   ar
    48    22    23    3
    49    24    25    1
    50    24    26   ar
    51    26    50    1
    52    27    51    1
    53    27    52    1
@<TRIPOS>SUBSTRUCTURE
     1 ZINC000124554441        1 TEMP              0 ****  ****    0 ROOT


##########                                Name:    ZINC000185598309
##########                DOCK_Rotatable_Bonds:                  14
##########                         Heavy_Atoms:                  25
##########                    Molecular_Weight:             347.457
##########                DOCK_Rotatable_Bonds:                  14
##########                       Formal_Charge:               -0.02
##########                     HBond_Acceptors:                   6
##########                        HBond_Donors:                   4
##########                         Heavy_Atoms:                  25
##########                          Grid_Score:          -34.907757
##########                     Grid_vdw_energy:          -32.980904
##########                      Grid_es_energy:           -1.926854
##########           Internal_energy_repulsive:           15.478813

@<TRIPOS>MOLECULE
ZINC000185598309
 54 54 1 0 0
SMALL
USER_CHARGES


@<TRIPOS>ATOM
      1 C1         -7.3474    0.9034   52.1232 C.3     1  ZINC000185598309   -0.1300
      2 C2         -7.5894   -0.4973   51.6225 C.2     1  ZINC000185598309   -0.1600
      3 C3         -8.6872   -1.1307   51.9534 C.2     1  ZINC000185598309   -0.1600
      4 C4         -9.7075   -0.4596   52.8363 C.3     1  ZINC000185598309   -0.0900
      5 C5        -10.5822   -1.5225   53.5041 C.3     1  ZINC000185598309    0.1700
      6 H6         -9.9919   -2.4223   53.6776 H       1  ZINC000185598309    0.1000
      7 C7        -11.7648   -1.8561   52.5925 C.3     1  ZINC000185598309    0.0600
      8 O8        -11.3391   -2.7610   51.5719 O.3     1  ZINC000185598309   -0.5700
      9 N9        -11.0808   -1.0114   54.7834 N.am    1  ZINC000185598309   -0.7300
     10 C10       -11.3916   -1.8681   55.7763 C.2     1  ZINC000185598309    0.7000
     11 O11       -11.2567   -3.0651   55.6108 O.2     1  ZINC000185598309   -0.5900
     12 N12       -11.8517   -1.3980   56.9526 N.am    1  ZINC000185598309   -0.7400
     13 C13       -12.1912   -2.3294   58.0312 C.3     1  ZINC000185598309    0.1800
     14 C14       -11.0933   -2.3239   59.0637 C.ar    1  ZINC000185598309   -0.0900
     15 C15       -10.2987   -3.4426   59.2325 C.ar    1  ZINC000185598309   -0.1100
     16 C16        -9.2904   -3.4417   60.1792 C.ar    1  ZINC000185598309   -0.1000
     17 C17        -9.0741   -2.3226   60.9587 C.ar    1  ZINC000185598309   -0.1100
     18 C18        -9.8704   -1.1970   60.7913 C.ar    1  ZINC000185598309    0.1400
     19 N19        -9.6537   -0.0612   61.5791 N.am    1  ZINC000185598309   -0.6800
     20 C20       -10.4533    0.1893   62.6348 C.2     1  ZINC000185598309    0.5200
     21 O21       -11.3609   -0.5697   62.9017 O.2     1  ZINC000185598309   -0.5200
     22 C22       -10.2198    1.4127   63.4833 C.3     1  ZINC000185598309   -0.1100
     23 H23        -9.9746    2.2588   62.8414 H       1  ZINC000185598309    0.1000
     24 C24        -9.0607    1.1511   64.4472 C.3     1  ZINC000185598309   -0.1500
     25 C25       -11.4860    1.7285   64.2821 C.3     1  ZINC000185598309   -0.1100
     26 C26       -11.5298    3.2250   64.5975 C.3     1  ZINC000185598309   -0.1600
     27 C27       -10.8785   -1.1992   59.8363 C.ar    1  ZINC000185598309   -0.1300
     28 H28        -6.3898    1.2634   51.7470 H       1  ZINC000185598309    0.0600
     29 H29        -8.1451    1.5577   51.7716 H       1  ZINC000185598309    0.0600
     30 H30        -7.3324    0.9020   53.2131 H       1  ZINC000185598309    0.0600
     31 H31        -6.8575   -0.9789   50.9908 H       1  ZINC000185598309    0.1100
     32 H32        -8.8611   -2.1341   51.5935 H       1  ZINC000185598309    0.1100
     33 H33        -9.1972    0.1247   53.6021 H       1  ZINC000185598309    0.0900
     34 H34       -10.3327    0.1990   52.2333 H       1  ZINC000185598309    0.0800
     35 H35       -12.5576   -2.3185   53.1806 H       1  ZINC000185598309    0.0500
     36 H36       -12.1393   -0.9411   52.1338 H       1  ZINC000185598309    0.0500
     37 H37       -12.0395   -3.0176   50.9565 H       1  ZINC000185598309    0.3800
     38 H38       -11.1872   -0.0564   54.9158 H       1  ZINC000185598309    0.4000
     39 H39       -11.9583   -0.4430   57.0850 H       1  ZINC000185598309    0.4000
     40 H40       -13.1281   -2.0218   58.4956 H       1  ZINC000185598309    0.0700
     41 H41       -12.3007   -3.3340   57.6227 H       1  ZINC000185598309    0.0800
     42 H42       -10.4657   -4.3191   58.6242 H       1  ZINC000185598309    0.1300
     43 H43        -8.6717   -4.3174   60.3093 H       1  ZINC000185598309    0.1300
     44 H44        -8.2869   -2.3226   61.6981 H       1  ZINC000185598309    0.1300
     45 H45        -8.9278    0.5459   61.3657 H       1  ZINC000185598309    0.4100
     46 H46        -8.1586    0.9261   63.8781 H       1  ZINC000185598309    0.0600
     47 H47        -8.8918    2.0359   65.0610 H       1  ZINC000185598309    0.0800
     48 H48        -9.3059    0.3051   65.0891 H       1  ZINC000185598309    0.0600
     49 H49       -12.3632    1.4550   63.6957 H       1  ZINC000185598309    0.0700
     50 H50       -11.4795    1.1611   65.2126 H       1  ZINC000185598309    0.0700
     51 H51       -10.6526    3.4986   65.1839 H       1  ZINC000185598309    0.0600
     52 H52       -11.5363    3.7926   63.6670 H       1  ZINC000185598309    0.0600
     53 H53       -12.4318    3.4501   65.1667 H       1  ZINC000185598309    0.0600
     54 H54       -11.4994   -0.3255   59.7037 H       1  ZINC000185598309    0.1300
@<TRIPOS>BOND
     1     1     2    1
     2     1    28    1
     3     1    29    1
     4     1    30    1
     5     2     3    2
     6     2    31    1
     7     3     4    1
     8     3    32    1
     9     4     5    1
    10     4    33    1
    11     4    34    1
    12     5     6    1
    13     5     7    1
    14     5     9    1
    15     7     8    1
    16     7    35    1
    17     7    36    1
    18     8    37    1
    19     9    10   am
    20     9    38    1
    21    10    11    2
    22    10    12   am
    23    12    13    1
    24    12    39    1
    25    13    14    1
    26    13    40    1
    27    13    41    1
    28    14    27   ar
    29    14    15   ar
    30    15    16   ar
    31    15    42    1
    32    16    17   ar
    33    16    43    1
    34    17    18   ar
    35    17    44    1
    36    18    19    1
    37    18    27   ar
    38    19    20   am
    39    19    45    1
    40    20    21    2
    41    20    22    1
    42    22    23    1
    43    22    24    1
    44    22    25    1
    45    24    46    1
    46    24    47    1
    47    24    48    1
    48    25    26    1
    49    25    49    1
    50    25    50    1
    51    26    51    1
    52    26    52    1
    53    26    53    1
    54    27    54    1
@<TRIPOS>SUBSTRUCTURE
     1 ZINC000185598309        1 TEMP              0 ****  ****    0 ROOT


##########                                Name:    ZINC000011972961
##########                DOCK_Rotatable_Bonds:                   6
##########                         Heavy_Atoms:                  28
##########                    Molecular_Weight:             397.501
##########                DOCK_Rotatable_Bonds:                   6
##########                       Formal_Charge:                   0
##########                     HBond_Acceptors:                   8
##########                        HBond_Donors:                   1
##########                         Heavy_Atoms:                  28
##########                          Grid_Score:          -34.902363
##########                     Grid_vdw_energy:          -34.902363
##########                      Grid_es_energy:            0.000000
##########           Internal_energy_repulsive:           22.051809

@<TRIPOS>MOLECULE
ZINC000011972961
 51 54 1 0 0
SMALL
USER_CHARGES


@<TRIPOS>ATOM
      1 C1        -13.1966   -1.9964   58.9214 C.3         L      0.0000
      2 C2        -12.2028   -3.0840   58.6042 C.2         L      0.0000
      3 C3        -12.4589   -4.0471   57.7098 C.2         L      0.0000
      4 C4        -13.7057   -4.1654   56.9439 C.2         L      0.0000
      5 O5        -14.6283   -4.8268   57.3819 O.2         L      0.0000
      6 N6        -13.8284   -3.5414   55.7557 N.am        L      0.0000
      7 C7        -15.0727   -3.6595   54.9913 C.3         L      0.0000
      8 C8        -12.7176   -2.7450   55.2284 C.3         L      0.0000
      9 H9        -11.9627   -2.5875   55.9987 H           L      0.0000
     10 C10       -12.0938   -3.4369   53.9919 C.3         L      0.0000
     11 C11       -12.7814   -2.6902   52.8206 C.3         L      0.0000
     12 O12       -12.8746   -1.3303   53.2965 O.3         L      0.0000
     13 C13       -13.2296   -1.3945   54.6910 C.3         L      0.0000
     14 S14       -11.0983   -5.1483   57.5791 S.3         L      0.0000
     15 C15       -10.1872   -4.2437   58.7807 C.ar        L      0.0000
     16 N16        -8.9648   -4.4343   59.2898 N.ar        L      0.0000
     17 C17        -8.4726   -3.6193   60.1946 C.ar        L      0.0000
     18 N18        -9.1487   -2.5790   60.6469 N.ar        L      0.0000
     19 C19       -10.3668   -2.3053   60.2053 C.ar        L      0.0000
     20 N20       -11.0591   -1.2137   60.6891 N.pl3       L      0.0000
     21 C21       -10.4869   -0.4018   61.7659 C.3         L      0.0000
     22 C22       -11.5783    0.0064   62.7215 C.ar        L      0.0000
     23 N23       -12.7284   -0.6383   62.7110 N.ar        L      0.0000
     24 C24       -13.7114   -0.3163   63.5291 C.ar        L      0.0000
     25 C25       -15.0063   -1.0854   63.4765 C.3         L      0.0000
     26 C26       -13.5677    0.7179   64.4342 C.ar        L      0.0000
     27 C27       -12.3721    1.4192   64.4746 C.ar        L      0.0000
     28 C28       -11.3601    1.0488   63.6026 C.ar        L      0.0000
     29 C29       -10.9487   -3.1518   59.2198 C.ar        L      0.0000
     30 H30       -12.8226   -1.0426   58.5491 H           L      0.0000
     31 H31       -14.1496   -2.2244   58.4438 H           L      0.0000
     32 H32       -13.3364   -1.9355   60.0007 H           L      0.0000
     33 H33       -15.8827   -3.1782   55.5392 H           L      0.0000
     34 H34       -14.9512   -3.1752   54.0224 H           L      0.0000
     35 H35       -15.3098   -4.7132   54.8437 H           L      0.0000
     36 H36       -11.0141   -3.2893   53.9670 H           L      0.0000
     37 H37       -12.3404   -4.4986   53.9746 H           L      0.0000
     38 H38       -12.1684   -2.7407   51.9207 H           L      0.0000
     39 H39       -13.7738   -3.1003   52.6338 H           L      0.0000
     40 H40       -14.3126   -1.3389   54.8006 H           L      0.0000
     41 H41       -12.7577   -0.5741   55.2318 H           L      0.0000
     42 H42        -7.4821   -3.8065   60.5820 H           L      0.0000
     43 H43       -11.9245   -0.9840   60.3160 H           L      0.0000
     44 H44        -9.7355   -0.9837   62.2997 H           L      0.0000
     45 H45       -10.0231    0.4889   61.3422 H           L      0.0000
     46 H46       -14.9544   -1.9316   64.1615 H           L      0.0000
     47 H47       -15.8290   -0.4323   63.7677 H           L      0.0000
     48 H48       -15.1723   -1.4486   62.4623 H           L      0.0000
     49 H49       -14.3764    0.9768   65.1016 H           L      0.0000
     50 H50       -12.2313    2.2322   65.1716 H           L      0.0000
     51 H51       -10.4157    1.5727   63.6068 H           L      0.0000
@<TRIPOS>BOND
     1     1     2    1
     2     1    30    1
     3     1    31    1
     4     1    32    1
     5     2    29    1
     6     2     3    2
     7     3     4    1
     8     3    14    1
     9     4     5    2
    10     4     6   am
    11     6     7    1
    12     6     8    1
    13     7    33    1
    14     7    34    1
    15     7    35    1
    16     8     9    1
    17     8    13    1
    18     8    10    1
    19    10    11    1
    20    10    36    1
    21    10    37    1
    22    11    12    1
    23    11    38    1
    24    11    39    1
    25    12    13    1
    26    13    40    1
    27    13    41    1
    28    14    15    1
    29    15    29   ar
    30    15    16   ar
    31    16    17   ar
    32    17    18   ar
    33    17    42    1
    34    18    19   ar
    35    19    20    1
    36    19    29   ar
    37    20    21    1
    38    20    43    1
    39    21    22    1
    40    21    44    1
    41    21    45    1
    42    22    28   ar
    43    22    23   ar
    44    23    24   ar
    45    24    25    1
    46    24    26   ar
    47    25    46    1
    48    25    47    1
    49    25    48    1
    50    26    27   ar
    51    26    49    1
    52    27    28   ar
    53    27    50    1
    54    28    51    1
@<TRIPOS>SUBSTRUCTURE
     1  L        1 TEMP              0 ****  ****    0 ROOT


##########                                Name:    ZINC000429196987
##########                DOCK_Rotatable_Bonds:                   7
##########                         Heavy_Atoms:                  28
##########                    Molecular_Weight:             403.505
##########                DOCK_Rotatable_Bonds:                   7
##########                       Formal_Charge:          -0.0399997
##########                     HBond_Acceptors:                   9
##########                        HBond_Donors:                   1
##########                         Heavy_Atoms:                  28
##########                          Grid_Score:          -34.849514
##########                     Grid_vdw_energy:          -34.125633
##########                      Grid_es_energy:           -0.723880
##########           Internal_energy_repulsive:           12.890428

@<TRIPOS>MOLECULE
ZINC000429196987
 53 55 1 0 0
SMALL
USER_CHARGES


@<TRIPOS>ATOM
      1 C1        -13.9676   -5.5038   55.3811 C.3     1  ZINC000429196987    0.0800
      2 N2        -13.6409   -4.1403   55.8060 N.am    1  ZINC000429196987   -0.6300
      3 C3        -14.1457   -2.9951   55.0445 C.3     1  ZINC000429196987    0.1600
      4 C4        -12.9862   -2.2269   54.4646 C.ar    1  ZINC000429196987   -0.0600
      5 C5        -11.9288   -2.9037   53.8861 C.ar    1  ZINC000429196987   -0.1300
      6 C6        -10.8652   -2.1989   53.3542 C.ar    1  ZINC000429196987   -0.0300
      7 C7        -10.8592   -0.8174   53.4004 C.ar    1  ZINC000429196987   -0.6600
      8 S8         -9.5032    0.0809   52.7228 S.o2    1  ZINC000429196987    2.5000
      9 C9         -8.6488    0.7690   54.1675 C.3     1  ZINC000429196987   -0.6500
     10 O10        -8.7029   -0.9123   52.0965 O.2     1  ZINC000429196987   -0.9400
     11 O11       -10.1128    1.1163   51.9641 O.2     1  ZINC000429196987   -0.9400
     12 C12       -11.9173   -0.1405   53.9776 C.ar    1  ZINC000429196987   -0.0300
     13 C13       -12.9827   -0.8451   54.5061 C.ar    1  ZINC000429196987   -0.1100
     14 C14       -12.8759   -3.9396   56.8972 C.2     1  ZINC000429196987    0.7100
     15 O15       -12.4558   -4.8901   57.5283 O.2     1  ZINC000429196987   -0.5800
     16 N16       -12.5767   -2.6852   57.2890 N.am    1  ZINC000429196987   -0.7400
     17 C17       -11.7467   -2.4670   58.4763 C.3     1  ZINC000429196987    0.1600
     18 C18       -10.7961   -1.2925   58.2273 C.3     1  ZINC000429196987   -0.1300
     19 C19        -9.9747   -1.0306   59.4917 C.3     1  ZINC000429196987    0.0700
     20 N20       -10.8774   -0.7247   60.6088 N.3     1  ZINC000429196987   -0.4700
     21 C21       -10.1609   -0.3533   61.7412 C.ar    1  ZINC000429196987    0.2500
     22 C22       -10.3066    0.9271   62.2737 C.ar    1  ZINC000429196987   -0.1300
     23 C23        -9.5702    1.2476   63.4032 C.ar    1  ZINC000429196987   -0.1000
     24 C24        -8.7339    0.2758   63.9343 C.ar    1  ZINC000429196987    0.0200
     25 N25        -8.6574   -0.9109   63.3654 N.ar    1  ZINC000429196987   -0.2200
     26 N26        -9.3406   -1.2165   62.3226 N.ar    1  ZINC000429196987   -0.2800
     27 C27       -11.7678   -1.8562   60.8971 C.3     1  ZINC000429196987    0.0600
     28 C28       -12.6429   -2.1429   59.6747 C.3     1  ZINC000429196987   -0.1200
     29 H29       -13.2056   -5.8610   54.6884 H       1  ZINC000429196987    0.0600
     30 H30       -14.0015   -6.1577   56.2527 H       1  ZINC000429196987    0.0700
     31 H31       -14.9389   -5.5073   54.8864 H       1  ZINC000429196987    0.0800
     32 H32       -14.7868   -3.3496   54.2374 H       1  ZINC000429196987    0.1000
     33 H33       -14.7191   -2.3442   55.7046 H       1  ZINC000429196987    0.0900
     34 H34       -11.9335   -3.9831   53.8501 H       1  ZINC000429196987    0.1300
     35 H35       -10.0387   -2.7276   52.9028 H       1  ZINC000429196987    0.1400
     36 H36        -8.3164   -0.0433   54.8140 H       1  ZINC000429196987    0.1300
     37 H37        -7.7858    1.3473   53.8379 H       1  ZINC000429196987    0.1300
     38 H38        -9.3309    1.4163   54.7188 H       1  ZINC000429196987    0.1300
     39 H39       -11.9128    0.9389   54.0134 H       1  ZINC000429196987    0.1400
     40 H40       -13.8093   -0.3163   54.9571 H       1  ZINC000429196987    0.1400
     41 H41       -12.9109   -1.9269   56.7848 H       1  ZINC000429196987    0.4000
     42 H42       -11.1682   -3.3666   58.6867 H       1  ZINC000429196987    0.0900
     43 H43       -10.1266   -1.5350   57.4020 H       1  ZINC000429196987    0.0800
     44 H44       -11.3744   -0.4029   57.9783 H       1  ZINC000429196987    0.0700
     45 H45        -9.3862   -1.9159   59.7323 H       1  ZINC000429196987    0.0600
     46 H46        -9.3071   -0.1858   59.3225 H       1  ZINC000429196987    0.0900
     47 H47       -10.9721    1.6466   61.8200 H       1  ZINC000429196987    0.1500
     48 H48        -9.6446    2.2250   63.8565 H       1  ZINC000429196987    0.1500
     49 H49        -8.1454    0.4918   64.8138 H       1  ZINC000429196987    0.1700
     50 H50       -11.1709   -2.7376   61.1312 H       1  ZINC000429196987    0.0500
     51 H51       -12.4027   -1.6111   61.7486 H       1  ZINC000429196987    0.0900
     52 H52       -13.2503   -1.2665   59.4483 H       1  ZINC000429196987    0.0800
     53 H53       -13.2928   -2.9926   59.8835 H       1  ZINC000429196987    0.0800
@<TRIPOS>BOND
     1     1     2    1
     2     1    29    1
     3     1    30    1
     4     1    31    1
     5     2     3    1
     6     2    14   am
     7     3     4    1
     8     3    32    1
     9     3    33    1
    10     4    13   ar
    11     4     5   ar
    12     5     6   ar
    13     5    34    1
    14     6     7   ar
    15     6    35    1
    16     7     8    1
    17     7    12   ar
    18     8     9    1
    19     8    10    2
    20     8    11    2
    21     9    36    1
    22     9    37    1
    23     9    38    1
    24    12    13   ar
    25    12    39    1
    26    13    40    1
    27    14    15    2
    28    14    16   am
    29    16    17    1
    30    16    41    1
    31    17    28    1
    32    17    18    1
    33    17    42    1
    34    18    19    1
    35    18    43    1
    36    18    44    1
    37    19    20    1
    38    19    45    1
    39    19    46    1
    40    20    21    1
    41    20    27    1
    42    21    26   ar
    43    21    22   ar
    44    22    23   ar
    45    22    47    1
    46    23    24   ar
    47    23    48    1
    48    24    25   ar
    49    24    49    1
    50    25    26   ar
    51    27    28    1
    52    27    50    1
    53    27    51    1
    54    28    52    1
    55    28    53    1
@<TRIPOS>SUBSTRUCTURE
     1 ZINC000429196987        1 TEMP              0 ****  ****    0 ROOT


##########                                Name:     oleObject70.pdb
##########                DOCK_Rotatable_Bonds:                   9
##########                         Heavy_Atoms:                  35
##########                    Molecular_Weight:             504.458
##########                DOCK_Rotatable_Bonds:                   9
##########                       Formal_Charge:          0.00010002
##########                     HBond_Acceptors:                   6
##########                        HBond_Donors:                   2
##########                         Heavy_Atoms:                  35
##########                          Grid_Score:          -34.838364
##########                     Grid_vdw_energy:          -34.462021
##########                      Grid_es_energy:           -0.376343
##########           Internal_energy_repulsive:           26.822618

@<TRIPOS>MOLECULE
oleObject70.pdb
 62 65 1 0 0
SMALL
NO_CHARGES


@<TRIPOS>ATOM
      1 C          -4.8879    4.4623   57.1297 C.ar    1  UNL        -0.0620
      2 C          -5.8045    5.1970   56.3642 C.ar    1  UNL        -0.0590
      3 C          -6.0630    4.8518   55.0234 C.ar    1  UNL        -0.0456
      4 C          -5.3974    3.7423   54.4422 C.ar    1  UNL        -0.0187
      5 C          -4.4663    3.0222   55.2221 C.ar    1  UNL        -0.0565
      6 C          -4.2147    3.3764   56.5558 C.ar    1  UNL        -0.0619
      7 C          -5.6544    3.3351   52.9804 C.3     1  UNL         0.0909
      8 C          -4.3727    3.1230   52.1561 C.ar    1  UNL         0.0681
      9 C          -4.3747    2.3757   50.9509 C.ar    1  UNL        -0.0272
     10 C          -3.1601    2.2226   50.2559 C.ar    1  UNL        -0.0559
     11 C          -1.9976    2.8132   50.7718 C.ar    1  UNL        -0.0435
     12 C          -2.0879    3.5417   51.9668 C.ar    1  UNL         0.0272
     13 N          -3.2443    3.6941   52.6382 N.ar    1  UNL        -0.2587
     14 C          -5.6392    1.7331   50.3915 C.3     1  UNL        -0.0379
     15 N          -6.6580    2.2552   52.8535 N.am    1  UNL        -0.2987
     16 C          -7.9488    2.3765   52.3540 C.2     1  UNL         0.2437
     17 O          -8.3987    3.4324   51.9432 O.2     1  UNL        -0.2719
     18 C          -8.7771    1.1141   52.3319 C.ar    1  UNL         0.0371
     19 C          -8.1896   -0.1692   52.2612 C.ar    1  UNL        -0.0494
     20 C          -8.9905   -1.3231   52.2441 C.ar    1  UNL        -0.0570
     21 C         -10.3904   -1.2192   52.2967 C.ar    1  UNL        -0.0341
     22 C         -10.9826    0.0524   52.3696 C.ar    1  UNL        -0.0570
     23 C         -10.1834    1.2070   52.3858 C.ar    1  UNL        -0.0494
     24 C         -11.2532   -2.4698   52.2854 C.3     1  UNL         0.0208
     25 N         -12.1095   -2.5393   53.4762 N.4     1  UNL        -0.3086
     26 C         -11.3702   -2.7613   54.7258 C.3     1  UNL         0.0223
     27 C         -12.3120   -3.0371   55.8902 C.ar    1  UNL        -0.0154
     28 C         -12.9404   -4.2935   55.9862 C.ar    1  UNL        -0.0548
     29 C         -13.8100   -4.5761   57.0523 C.ar    1  UNL        -0.0431
     30 C         -14.0560   -3.6023   58.0324 C.ar    1  UNL         0.0421
     31 C         -13.4323   -2.3476   57.9482 C.ar    1  UNL        -0.0245
     32 C         -12.5620   -2.0634   56.8820 C.ar    1  UNL         0.0465
     33 CL        -11.7996   -0.4844   56.8256 Cl      1  UNL        -0.0839
     34 CL        -15.1389   -3.9536   59.3624 Cl      1  UNL        -0.0843
     35 C          -7.0492    5.7047   54.2313 C.3     1  UNL        -0.0394
     36 H          -4.6929    4.7404   58.1615 H       1  UNL         0.0623
     37 H          -6.3117    6.0447   56.8163 H       1  UNL         0.0626
     38 H          -3.9213    2.1869   54.7954 H       1  UNL         0.0627
     39 H          -3.4945    2.8117   57.1408 H       1  UNL         0.0623
     40 H          -6.1524    4.1930   52.5190 H       1  UNL         0.0624
     41 H          -3.1159    1.6534   49.3318 H       1  UNL         0.0627
     42 H          -1.0469    2.7092   50.2575 H       1  UNL         0.0639
     43 H          -1.2093    4.0162   52.4018 H       1  UNL         0.0840
     44 H          -6.0140    0.9498   51.0614 H       1  UNL         0.0280
     45 H          -5.4561    1.2665   49.4156 H       1  UNL         0.0280
     46 H          -6.4351    2.4746   50.2521 H       1  UNL         0.0280
     47 H          -6.3783    1.3368   53.1688 H       1  UNL         0.1508
     48 H          -7.1121   -0.2902   52.2187 H       1  UNL         0.0631
     49 H          -8.5214   -2.3019   52.1935 H       1  UNL         0.0626
     50 H         -12.0639    0.1477   52.4165 H       1  UNL         0.0626
     51 H         -10.6651    2.1792   52.4432 H       1  UNL         0.0631
     52 H         -10.6044   -3.3543   52.2422 H       1  UNL         0.0479
     53 H         -11.8752   -2.4702   51.3807 H       1  UNL         0.0479
     54 H         -12.7897   -3.2893   53.3539 H       1  UNL         0.1229
     55 H         -10.7623   -1.8761   54.9538 H       1  UNL         0.0480
     56 H         -10.6801   -3.6067   54.6079 H       1  UNL         0.0480
     57 H         -12.7518   -5.0547   55.2342 H       1  UNL         0.0627
     58 H         -14.2899   -5.5485   57.1182 H       1  UNL         0.0639
     59 H         -13.6214   -1.5964   58.7096 H       1  UNL         0.0654
     60 H          -7.3500    6.6005   54.7889 H       1  UNL         0.0280
     61 H          -7.9614    5.1405   54.0006 H       1  UNL         0.0280
     62 H          -6.6092    6.0457   53.2857 H       1  UNL         0.0280
@<TRIPOS>BOND
     1     1     2   ar
     2     1     6   ar
     3     1    36    1
     4     2     3   ar
     5     2    37    1
     6     3     4   ar
     7     3    35    1
     8     4     5   ar
     9     4     7    1
    10     5     6   ar
    11     5    38    1
    12     6    39    1
    13     7     8    1
    14     7    15    1
    15     7    40    1
    16     8     9   ar
    17     8    13   ar
    18     9    10   ar
    19     9    14    1
    20    10    11   ar
    21    10    41    1
    22    11    12   ar
    23    11    42    1
    24    12    13   ar
    25    12    43    1
    26    14    44    1
    27    14    45    1
    28    14    46    1
    29    15    16   am
    30    15    47    1
    31    16    17    2
    32    16    18    1
    33    18    19   ar
    34    18    23   ar
    35    19    20   ar
    36    19    48    1
    37    20    21   ar
    38    20    49    1
    39    21    22   ar
    40    21    24    1
    41    22    23   ar
    42    22    50    1
    43    23    51    1
    44    24    25    1
    45    24    52    1
    46    24    53    1
    47    25    26    1
    48    25    54    1
    49    26    27    1
    50    26    55    1
    51    26    56    1
    52    27    28   ar
    53    27    32   ar
    54    28    29   ar
    55    28    57    1
    56    29    30   ar
    57    29    58    1
    58    30    31   ar
    59    30    34    1
    60    31    32   ar
    61    31    59    1
    62    32    33    1
    63    35    60    1
    64    35    61    1
    65    35    62    1
@<TRIPOS>SUBSTRUCTURE
     1 UNL         1 TEMP              0 ****  ****    0 ROOT


##########                                Name:    ZINC000265786263
##########                DOCK_Rotatable_Bonds:                   7
##########                         Heavy_Atoms:                  28
##########                    Molecular_Weight:             386.451
##########                DOCK_Rotatable_Bonds:                   7
##########                       Formal_Charge:           0.0499992
##########                     HBond_Acceptors:                   8
##########                        HBond_Donors:                   2
##########                         Heavy_Atoms:                  28
##########                          Grid_Score:          -34.804699
##########                     Grid_vdw_energy:          -29.687641
##########                      Grid_es_energy:           -5.117058
##########           Internal_energy_repulsive:           15.114769

@<TRIPOS>MOLECULE
ZINC000265786263
 54 57 1 0 0
SMALL
USER_CHARGES


@<TRIPOS>ATOM
      1 C1        -10.1182   -3.1452   60.7653 C.3     1  ZINC000265786263   -0.1500
      2 C2        -10.2539   -1.6664   60.3970 C.3     1  ZINC000265786263    0.1600
      3 C3        -10.6401   -0.8406   61.6258 C.3     1  ZINC000265786263   -0.1600
      4 C4         -9.5236   -0.4585   62.5996 C.3     1  ZINC000265786263   -0.1600
      5 C5        -10.1428    0.6048   61.6903 C.3     1  ZINC000265786263   -0.1600
      6 N6         -9.0033   -1.1634   59.8028 N.am    1  ZINC000265786263   -0.7100
      7 C7         -9.3038   -0.7659   58.5532 C.2     1  ZINC000265786263    0.7100
      8 O8         -8.4922   -0.2954   57.7804 O.2     1  ZINC000265786263   -0.5400
      9 N9        -10.5958   -0.9463   58.2562 N.am    1  ZINC000265786263   -0.5600
     10 C10       -11.1995   -0.6029   56.9662 C.3     1  ZINC000265786263    0.1000
     11 C11       -11.2640   -1.8333   56.0984 C.2     1  ZINC000265786263    0.5100
     12 O12       -10.9587   -2.9144   56.5554 O.2     1  ZINC000265786263   -0.5300
     13 N13       -11.6611   -1.7322   54.8145 N.am    1  ZINC000265786263   -0.6100
     14 C14       -11.7389   -2.9213   53.9524 C.3     1  ZINC000265786263    0.1100
     15 C15       -13.1226   -2.9563   53.2949 C.3     1  ZINC000265786263    0.0400
     16 N16       -13.3701   -1.6784   52.6141 N.3     1  ZINC000265786263   -0.5300
     17 C17       -14.6098   -1.7322   51.8279 C.3     1  ZINC000265786263    0.0900
     18 C18       -14.6079   -0.6207   50.8102 C.ar    1  ZINC000265786263   -0.0600
     19 C19       -15.2832    0.5567   51.0722 C.ar    1  ZINC000265786263   -0.1300
     20 C20       -15.2834    1.5785   50.1404 C.ar    1  ZINC000265786263   -0.1000
     21 C21       -14.6084    1.4249   48.9451 C.ar    1  ZINC000265786263   -0.1400
     22 C22       -13.9299    0.2440   48.6798 C.ar    1  ZINC000265786263    0.1100
     23 O23       -13.2648    0.0906   47.5046 O.3     1  ZINC000265786263   -0.5000
     24 C24       -13.9266   -0.7773   49.6184 C.ar    1  ZINC000265786263   -0.1200
     25 C25       -13.4006   -0.5629   53.5693 C.3     1  ZINC000265786263    0.0400
     26 C26       -12.0342   -0.4307   54.2399 C.3     1  ZINC000265786263    0.1200
     27 C27       -11.2731   -1.4838   59.2899 C.2     1  ZINC000265786263    0.5400
     28 O28       -12.4521   -1.7638   59.3265 O.2     1  ZINC000265786263   -0.4500
     29 H29        -9.8064   -3.7111   59.8875 H       1  ZINC000265786263    0.0700
     30 H30        -9.3732   -3.2566   61.5530 H       1  ZINC000265786263    0.0800
     31 H31       -11.0786   -3.5214   61.1178 H       1  ZINC000265786263    0.0900
     32 H32       -11.6233   -1.0538   62.0453 H       1  ZINC000265786263    0.1100
     33 H33        -9.7722   -0.4204   63.6602 H       1  ZINC000265786263    0.1000
     34 H34        -8.5139   -0.7954   62.3649 H       1  ZINC000265786263    0.1100
     35 H35        -9.5404    0.9676   60.8575 H       1  ZINC000265786263    0.1000
     36 H36       -10.7986    1.3426   62.1528 H       1  ZINC000265786263    0.1000
     37 H37        -8.1331   -1.1257   60.2295 H       1  ZINC000265786263    0.4400
     38 H38       -12.2067   -0.2186   57.1274 H       1  ZINC000265786263    0.1300
     39 H39       -10.5947    0.1582   56.4732 H       1  ZINC000265786263    0.1300
     40 H40       -10.9690   -2.8666   53.1828 H       1  ZINC000265786263    0.0900
     41 H41       -11.5963   -3.8193   54.5537 H       1  ZINC000265786263    0.0900
     42 H42       -13.1598   -3.7684   52.5688 H       1  ZINC000265786263    0.0900
     43 H43       -13.8842   -3.1152   54.0583 H       1  ZINC000265786263    0.0400
     44 H44       -14.6744   -2.6928   51.3167 H       1  ZINC000265786263    0.0900
     45 H45       -15.4664   -1.6156   52.4916 H       1  ZINC000265786263    0.0500
     46 H46       -15.8118    0.6787   52.0061 H       1  ZINC000265786263    0.1200
     47 H47       -15.8119    2.4973   50.3473 H       1  ZINC000265786263    0.1300
     48 H48       -14.6092    2.2231   48.2176 H       1  ZINC000265786263    0.1300
     49 H49       -13.3042    0.8647   46.9264 H       1  ZINC000265786263    0.3900
     50 H50       -13.3992   -1.6973   49.4141 H       1  ZINC000265786263    0.1300
     51 H51       -13.6396    0.3609   53.0424 H       1  ZINC000265786263    0.1000
     52 H52       -14.1584   -0.7551   54.3289 H       1  ZINC000265786263    0.0400
     53 H53       -12.0848    0.3190   55.0296 H       1  ZINC000265786263    0.1000
     54 H54       -11.2899   -0.1370   53.4997 H       1  ZINC000265786263    0.0800
@<TRIPOS>BOND
     1     1     2    1
     2     1    29    1
     3     1    30    1
     4     1    31    1
     5     2    27    1
     6     2     3    1
     7     2     6    1
     8     3     5    1
     9     3     4    1
    10     3    32    1
    11     4     5    1
    12     4    33    1
    13     4    34    1
    14     5    35    1
    15     5    36    1
    16     6     7   am
    17     6    37    1
    18     7     8    2
    19     7     9   am
    20     9    10    1
    21     9    27   am
    22    10    11    1
    23    10    38    1
    24    10    39    1
    25    11    12    2
    26    11    13   am
    27    13    26    1
    28    13    14    1
    29    14    15    1
    30    14    40    1
    31    14    41    1
    32    15    16    1
    33    15    42    1
    34    15    43    1
    35    16    17    1
    36    16    25    1
    37    17    18    1
    38    17    44    1
    39    17    45    1
    40    18    24   ar
    41    18    19   ar
    42    19    20   ar
    43    19    46    1
    44    20    21   ar
    45    20    47    1
    46    21    22   ar
    47    21    48    1
    48    22    23    1
    49    22    24   ar
    50    23    49    1
    51    24    50    1
    52    25    26    1
    53    25    51    1
    54    25    52    1
    55    26    53    1
    56    26    54    1
    57    27    28    2
@<TRIPOS>SUBSTRUCTURE
     1 ZINC000265786263        1 TEMP              0 ****  ****    0 ROOT


##########                                Name:    ZINC000020646552
##########                DOCK_Rotatable_Bonds:                   5
##########                         Heavy_Atoms:                  29
##########                    Molecular_Weight:             412.556
##########                DOCK_Rotatable_Bonds:                   5
##########                       Formal_Charge:          -0.0200012
##########                     HBond_Acceptors:                   7
##########                        HBond_Donors:                   0
##########                         Heavy_Atoms:                  29
##########                          Grid_Score:          -34.798820
##########                     Grid_vdw_energy:          -34.091869
##########                      Grid_es_energy:           -0.706952
##########           Internal_energy_repulsive:           15.051610

@<TRIPOS>MOLECULE
ZINC000020646552
 57 60 1 0 0
SMALL
USER_CHARGES


@<TRIPOS>ATOM
      1 C1        -13.3974   -1.4865   61.3897 C.3     1  ZINC000020646552    0.0200
      2 N2        -12.1337   -0.8785   60.9519 N.3     1  ZINC000020646552   -0.5400
      3 C3        -12.3802    0.3117   60.1270 C.3     1  ZINC000020646552    0.0400
      4 C4        -11.0496    1.0169   59.8432 C.3     1  ZINC000020646552    0.1200
      5 N5        -10.1174    0.0392   59.2614 N.am    1  ZINC000020646552   -0.6100
      6 C6         -9.4588    0.3077   58.1166 C.2     1  ZINC000020646552    0.5300
      7 O7         -8.6950   -0.5108   57.6502 O.2     1  ZINC000020646552   -0.5200
      8 C8         -9.6715    1.6249   57.4161 C.3     1  ZINC000020646552   -0.1500
      9 S9        -11.2224    1.5691   56.4844 S.3     1  ZINC000020646552    0.0500
     10 C10       -10.8184    0.3372   55.2912 C.ar    1  ZINC000020646552    0.1500
     11 N11        -9.8631    0.5551   54.3937 N.ar    1  ZINC000020646552   -0.5200
     12 C12        -9.5590   -0.3714   53.4956 C.ar    1  ZINC000020646552    0.3800
     13 C13        -8.4855   -0.0976   52.5093 C.ar    1  ZINC000020646552   -0.0500
     14 C14        -8.0441   -1.1084   51.6573 C.ar    1  ZINC000020646552   -0.0700
     15 C15        -7.0453   -0.8478   50.7412 C.ar    1  ZINC000020646552   -0.1300
     16 C16        -6.4826    0.4137   50.6677 C.ar    1  ZINC000020646552   -0.1000
     17 C17        -6.9164    1.4206   51.5112 C.ar    1  ZINC000020646552   -0.1300
     18 C18        -7.9186    1.1730   52.4272 C.ar    1  ZINC000020646552   -0.0700
     19 N19       -10.1897   -1.5361   53.4573 N.ar    1  ZINC000020646552   -0.5200
     20 C20       -11.1544   -1.8190   54.3236 C.ar    1  ZINC000020646552    0.2100
     21 C21       -11.4949   -0.8881   55.2780 C.ar    1  ZINC000020646552   -0.2100
     22 C22       -12.5704   -1.1530   56.2951 C.3     1  ZINC000020646552    0.1100
     23 O23       -13.3706   -2.2635   55.8878 O.3     1  ZINC000020646552   -0.3600
     24 C24       -12.5989   -3.4218   55.5508 C.3     1  ZINC000020646552    0.1100
     25 C25       -11.5890   -3.7078   56.6640 C.3     1  ZINC000020646552   -0.1800
     26 C26       -13.5276   -4.6253   55.3780 C.3     1  ZINC000020646552   -0.1400
     27 C27       -11.8521   -3.1513   54.2446 C.3     1  ZINC000020646552   -0.0900
     28 C28        -9.9229   -1.2392   59.9624 C.3     1  ZINC000020646552    0.1100
     29 C29       -11.2978   -1.8555   60.2415 C.3     1  ZINC000020646552    0.0400
     30 H30       -13.1867   -2.3194   62.0604 H       1  ZINC000020646552    0.0700
     31 H31       -13.9969   -0.7415   61.9128 H       1  ZINC000020646552    0.0700
     32 H32       -13.9461   -1.8496   60.5207 H       1  ZINC000020646552    0.0300
     33 H33       -12.8414    0.0128   59.1857 H       1  ZINC000020646552    0.0400
     34 H34       -13.0459    0.9915   60.6589 H       1  ZINC000020646552    0.0900
     35 H35       -11.2107    1.8331   59.1390 H       1  ZINC000020646552    0.1000
     36 H36       -10.6368    1.4080   60.7730 H       1  ZINC000020646552    0.0800
     37 H37        -9.7196    2.4254   58.1542 H       1  ZINC000020646552    0.1300
     38 H38        -8.8433    1.8106   56.7321 H       1  ZINC000020646552    0.1200
     39 H39        -8.4825   -2.0937   51.7140 H       1  ZINC000020646552    0.1400
     40 H40        -6.7022   -1.6304   50.0807 H       1  ZINC000020646552    0.1300
     41 H41        -5.7013    0.6131   49.9493 H       1  ZINC000020646552    0.1300
     42 H42        -6.4732    2.4036   51.4497 H       1  ZINC000020646552    0.1300
     43 H43        -8.2566    1.9598   53.0853 H       1  ZINC000020646552    0.1300
     44 H44       -12.1102   -1.3732   57.2583 H       1  ZINC000020646552    0.0800
     45 H45       -13.2012   -0.2694   56.3922 H       1  ZINC000020646552    0.1100
     46 H46       -12.1198   -3.8859   57.5992 H       1  ZINC000020646552    0.0700
     47 H47       -11.0030   -4.5898   56.4052 H       1  ZINC000020646552    0.0700
     48 H48       -10.9247   -2.8516   56.7807 H       1  ZINC000020646552    0.0600
     49 H49       -14.2419   -4.4216   54.5803 H       1  ZINC000020646552    0.0700
     50 H50       -12.9379   -5.5054   55.1216 H       1  ZINC000020646552    0.0800
     51 H51       -14.0647   -4.8064   56.3091 H       1  ZINC000020646552    0.0700
     52 H52       -12.5622   -3.1338   53.4178 H       1  ZINC000020646552    0.1000
     53 H53       -11.1192   -3.9402   54.0758 H       1  ZINC000020646552    0.1000
     54 H54        -9.3391   -1.9145   59.3369 H       1  ZINC000020646552    0.0900
     55 H55        -9.4017   -1.0650   60.9037 H       1  ZINC000020646552    0.0800
     56 H56       -11.1785   -2.7475   60.8564 H       1  ZINC000020646552    0.0900
     57 H57       -11.7741   -2.1242   59.2986 H       1  ZINC000020646552    0.0400
@<TRIPOS>BOND
     1     1     2    1
     2     1    30    1
     3     1    31    1
     4     1    32    1
     5     2    29    1
     6     2     3    1
     7     3     4    1
     8     3    33    1
     9     3    34    1
    10     4     5    1
    11     4    35    1
    12     4    36    1
    13     5     6   am
    14     5    28    1
    15     6     7    2
    16     6     8    1
    17     8     9    1
    18     8    37    1
    19     8    38    1
    20     9    10    1
    21    10    21   ar
    22    10    11   ar
    23    11    12   ar
    24    12    13    1
    25    12    19   ar
    26    13    18   ar
    27    13    14   ar
    28    14    15   ar
    29    14    39    1
    30    15    16   ar
    31    15    40    1
    32    16    17   ar
    33    16    41    1
    34    17    18   ar
    35    17    42    1
    36    18    43    1
    37    19    20   ar
    38    20    27    1
    39    20    21   ar
    40    21    22    1
    41    22    23    1
    42    22    44    1
    43    22    45    1
    44    23    24    1
    45    24    25    1
    46    24    26    1
    47    24    27    1
    48    25    46    1
    49    25    47    1
    50    25    48    1
    51    26    49    1
    52    26    50    1
    53    26    51    1
    54    27    52    1
    55    27    53    1
    56    28    29    1
    57    28    54    1
    58    28    55    1
    59    29    56    1
    60    29    57    1
@<TRIPOS>SUBSTRUCTURE
     1 ZINC000020646552        1 TEMP              0 ****  ****    0 ROOT


##########                                Name:    ZINC000132775118
##########                DOCK_Rotatable_Bonds:                   5
##########                         Heavy_Atoms:                  27
##########                    Molecular_Weight:             376.499
##########                DOCK_Rotatable_Bonds:                   5
##########                       Formal_Charge:        -4.76837e-07
##########                     HBond_Acceptors:                   7
##########                        HBond_Donors:                   1
##########                         Heavy_Atoms:                  27
##########                          Grid_Score:          -34.760029
##########                     Grid_vdw_energy:          -33.584259
##########                      Grid_es_energy:           -1.175770
##########           Internal_energy_repulsive:           23.143312

@<TRIPOS>MOLECULE
ZINC000132775118
 59 62 1 0 0
SMALL
USER_CHARGES


@<TRIPOS>ATOM
      1 O1        -13.4706   -5.4094   56.4948 O.2     1  ZINC000132775118   -0.5200
      2 C2        -12.5823   -4.6066   56.3017 C.2     1  ZINC000132775118    0.5200
      3 C3        -11.5764   -4.3203   57.3868 C.3     1  ZINC000132775118    0.0300
      4 N4        -11.7825   -2.9589   57.8986 N.3     1  ZINC000132775118   -0.5100
      5 C5        -13.2136   -2.6758   58.0814 C.3     1  ZINC000132775118    0.0300
      6 C6        -13.4078   -1.3739   58.8040 C.2     1  ZINC000132775118    0.5300
      7 O7        -14.5063   -0.8601   58.7818 O.2     1  ZINC000132775118   -0.5500
      8 N8        -12.4268   -0.7526   59.4725 N.am    1  ZINC000132775118   -0.7200
      9 C9        -11.0636   -1.2649   59.4931 C.3     1  ZINC000132775118    0.1500
     10 H10       -10.4764   -0.7388   58.7404 H       1  ZINC000132775118    0.0800
     11 C11       -10.4095   -1.0679   60.8588 C.3     1  ZINC000132775118   -0.1300
     12 C12        -8.9631   -1.5687   60.7922 C.3     1  ZINC000132775118   -0.1200
     13 C13        -8.9399   -3.0483   60.4078 C.3     1  ZINC000132775118   -0.1200
     14 C14        -9.6235   -3.2480   59.0514 C.3     1  ZINC000132775118   -0.1200
     15 C15       -11.0679   -2.7593   59.1645 C.3     1  ZINC000132775118    0.0700
     16 H16       -11.5781   -3.3167   59.9500 H       1  ZINC000132775118    0.0600
     17 N17       -12.4914   -3.9747   55.1147 N.am    1  ZINC000132775118   -0.6200
     18 C18       -13.4681   -4.2390   54.0493 C.3     1  ZINC000132775118    0.1100
     19 C19       -14.0659   -2.9065   53.5868 C.3     1  ZINC000132775118   -0.1200
     20 C20       -12.9351   -1.9581   53.1818 C.3     1  ZINC000132775118   -0.1000
     21 C21       -13.5208   -0.6580   52.6940 C.2     1  ZINC000132775118    0.5300
     22 O22       -13.8486    0.1961   53.4903 O.2     1  ZINC000132775118   -0.5300
     23 N23       -13.6804   -0.4444   51.3729 N.am    1  ZINC000132775118   -0.6200
     24 C24       -13.3333   -1.3921   50.3037 C.3     1  ZINC000132775118    0.1000
     25 C25       -13.6650   -0.7088   48.9603 C.3     1  ZINC000132775118   -0.1300
     26 C26       -13.6512    0.7992   49.3247 C.3     1  ZINC000132775118   -0.1300
     27 C27       -14.2378    0.7754   50.7608 C.3     1  ZINC000132775118    0.1000
     28 C28       -12.0345   -1.6901   54.3898 C.3     1  ZINC000132775118   -0.1200
     29 C29       -11.4174   -3.0043   54.8636 C.3     1  ZINC000132775118    0.1200
     30 H30       -11.7035   -5.0367   58.1982 H       1  ZINC000132775118    0.0700
     31 H31       -10.5688   -4.4069   56.9800 H       1  ZINC000132775118    0.1200
     32 H32       -13.6964   -2.6205   57.1057 H       1  ZINC000132775118    0.1300
     33 H33       -13.6676   -3.4795   58.6610 H       1  ZINC000132775118    0.0700
     34 H34       -12.6304    0.0629   59.9569 H       1  ZINC000132775118    0.4000
     35 H35       -10.4177   -0.0092   61.1183 H       1  ZINC000132775118    0.0800
     36 H36       -10.9579   -1.6344   61.6114 H       1  ZINC000132775118    0.0700
     37 H37        -8.4146   -0.9927   60.0468 H       1  ZINC000132775118    0.0700
     38 H38        -8.4905   -1.4404   61.7660 H       1  ZINC000132775118    0.0700
     39 H39        -7.9066   -3.3899   60.3460 H       1  ZINC000132775118    0.0700
     40 H40        -9.4659   -3.6275   61.1668 H       1  ZINC000132775118    0.0600
     41 H41        -9.0936   -2.6782   58.2881 H       1  ZINC000132775118    0.0800
     42 H42        -9.6158   -4.3063   58.7909 H       1  ZINC000132775118    0.0700
     43 H43       -12.9713   -4.7272   53.2110 H       1  ZINC000132775118    0.0800
     44 H44       -14.2610   -4.8819   54.4317 H       1  ZINC000132775118    0.0900
     45 H45       -14.7201   -3.0784   52.7322 H       1  ZINC000132775118    0.0800
     46 H46       -14.6389   -2.4627   54.4009 H       1  ZINC000132775118    0.0800
     47 H47       -12.3473   -2.4132   52.3847 H       1  ZINC000132775118    0.0900
     48 H48       -12.2698   -1.6270   50.3475 H       1  ZINC000132775118    0.0700
     49 H49       -13.9211   -2.3036   50.4111 H       1  ZINC000132775118    0.0700
     50 H50       -12.9016   -0.9325   48.2151 H       1  ZINC000132775118    0.0800
     51 H51       -14.6508   -1.0112   48.6069 H       1  ZINC000132775118    0.0800
     52 H52       -12.6348    1.1929   49.3208 H       1  ZINC000132775118    0.0800
     53 H53       -14.2921    1.3696   48.6523 H       1  ZINC000132775118    0.0900
     54 H54       -15.3260    0.7252   50.7252 H       1  ZINC000132775118    0.0700
     55 H55       -13.9157    1.6559   51.3167 H       1  ZINC000132775118    0.0800
     56 H56       -11.2430   -0.9961   54.1066 H       1  ZINC000132775118    0.0800
     57 H57       -12.6267   -1.2577   55.1963 H       1  ZINC000132775118    0.0800
     58 H58       -10.8550   -2.8339   55.7816 H       1  ZINC000132775118    0.1000
     59 H59       -10.7529   -3.3947   54.0927 H       1  ZINC000132775118    0.0700
@<TRIPOS>BOND
     1     1     2    2
     2     2     3    1
     3     2    17   am
     4     3     4    1
     5     3    30    1
     6     3    31    1
     7     4    15    1
     8     4     5    1
     9     5     6    1
    10     5    32    1
    11     5    33    1
    12     6     7    2
    13     6     8   am
    14     8     9    1
    15     8    34    1
    16     9    10    1
    17     9    15    1
    18     9    11    1
    19    11    12    1
    20    11    35    1
    21    11    36    1
    22    12    13    1
    23    12    37    1
    24    12    38    1
    25    13    14    1
    26    13    39    1
    27    13    40    1
    28    14    15    1
    29    14    41    1
    30    14    42    1
    31    15    16    1
    32    17    29    1
    33    17    18    1
    34    18    19    1
    35    18    43    1
    36    18    44    1
    37    19    20    1
    38    19    45    1
    39    19    46    1
    40    20    21    1
    41    20    28    1
    42    20    47    1
    43    21    22    2
    44    21    23   am
    45    23    27    1
    46    23    24    1
    47    24    25    1
    48    24    48    1
    49    24    49    1
    50    25    26    1
    51    25    50    1
    52    25    51    1
    53    26    27    1
    54    26    52    1
    55    26    53    1
    56    27    54    1
    57    27    55    1
    58    28    29    1
    59    28    56    1
    60    28    57    1
    61    29    58    1
    62    29    59    1
@<TRIPOS>SUBSTRUCTURE
     1 ZINC000132775118        1 TEMP              0 ****  ****    0 ROOT


##########                                Name:    ZINC000809503567
##########                DOCK_Rotatable_Bonds:                   9
##########                         Heavy_Atoms:                  26
##########                    Molecular_Weight:             353.378
##########                DOCK_Rotatable_Bonds:                   9
##########                       Formal_Charge:          -0.0200002
##########                     HBond_Acceptors:                   7
##########                        HBond_Donors:                   1
##########                         Heavy_Atoms:                  26
##########                          Grid_Score:          -34.751518
##########                     Grid_vdw_energy:          -33.414066
##########                      Grid_es_energy:           -1.337453
##########           Internal_energy_repulsive:           10.186284

@<TRIPOS>MOLECULE
ZINC000809503567
 45 46 1 0 0
SMALL
USER_CHARGES


@<TRIPOS>ATOM
      1 C1         -8.3661    0.7198   64.6000 C.3     1  ZINC000809503567    0.0200
      2 O2         -9.6526    0.5527   64.0007 O.3     1  ZINC000809503567   -0.3100
      3 C3         -9.6819    0.1104   62.7181 C.ar    1  ZINC000809503567    0.1900
      4 C4         -9.1083   -1.1076   62.3885 C.ar    1  ZINC000809503567   -0.2100
      5 C5         -9.1387   -1.5567   61.0824 C.ar    1  ZINC000809503567   -0.0200
      6 C6         -9.7403   -0.7962   60.0939 C.ar    1  ZINC000809503567   -0.1500
      7 C7         -9.7662   -1.2977   58.6730 C.3     1  ZINC000809503567    0.1700
      8 N8        -10.4091   -2.6134   58.6311 N.am    1  ZINC000809503567   -0.7000
      9 C9        -10.7824   -3.1436   57.4495 C.2     1  ZINC000809503567    0.5100
     10 O10       -10.5874   -2.5306   56.4207 O.2     1  ZINC000809503567   -0.4900
     11 C11       -11.4367   -4.4866   57.4066 C.2     1  ZINC000809503567    0.5100
     12 O12       -10.9422   -5.4217   58.0013 O.2     1  ZINC000809503567   -0.5000
     13 N13       -12.5760   -4.6592   56.7075 N.am    1  ZINC000809503567   -0.4600
     14 C14       -13.2163   -5.9761   56.6640 C.3     1  ZINC000809503567    0.0800
     15 O15       -13.1539   -3.5676   56.0150 O.3     1  ZINC000809503567   -0.1100
     16 C16       -14.4729   -3.2344   56.4524 C.3     1  ZINC000809503567    0.0800
     17 C17       -14.4429   -2.8857   57.9182 C.ar    1  ZINC000809503567   -0.0900
     18 C18       -13.9432   -1.6638   58.3280 C.ar    1  ZINC000809503567   -0.1000
     19 C19       -13.9157   -1.3440   59.6726 C.ar    1  ZINC000809503567   -0.1300
     20 C20       -14.3883   -2.2460   60.6074 C.ar    1  ZINC000809503567   -0.1100
     21 C21       -14.8888   -3.4677   60.1976 C.ar    1  ZINC000809503567   -0.1300
     22 C22       -14.9203   -3.7857   58.8526 C.ar    1  ZINC000809503567   -0.0800
     23 C23       -10.3163    0.4174   60.4039 C.ar    1  ZINC000809503567   -0.0100
     24 C24       -10.2976    0.8807   61.7215 C.ar    1  ZINC000809503567   -0.0600
     25 C25       -10.8939    2.1404   62.0505 C.1     1  ZINC000809503567    0.2600
     26 N26       -11.3669    3.1397   62.3114 N.1     1  ZINC000809503567   -0.4100
     27 H27        -7.7897    1.4458   64.0267 H       1  ZINC000809503567    0.0600
     28 H28        -8.4855    1.0770   65.6230 H       1  ZINC000809503567    0.1100
     29 H29        -7.8420   -0.2359   64.6077 H       1  ZINC000809503567    0.0600
     30 H30        -8.6366   -1.7062   63.1536 H       1  ZINC000809503567    0.1400
     31 H31        -8.6904   -2.5065   60.8308 H       1  ZINC000809503567    0.1400
     32 H32       -10.3267   -0.5994   58.0513 H       1  ZINC000809503567    0.0900
     33 H33        -8.7459   -1.3796   58.2981 H       1  ZINC000809503567    0.0900
     34 H34       -10.5661   -3.1029   59.4536 H       1  ZINC000809503567    0.4100
     35 H35       -13.9240   -6.0634   57.4883 H       1  ZINC000809503567    0.0800
     36 H36       -13.7448   -6.0920   55.7177 H       1  ZINC000809503567    0.0800
     37 H37       -12.4567   -6.7526   56.7533 H       1  ZINC000809503567    0.0900
     38 H38       -14.8394   -2.3801   55.8832 H       1  ZINC000809503567    0.0700
     39 H39       -15.1340   -4.0865   56.2951 H       1  ZINC000809503567    0.0600
     40 H40       -13.5740   -0.9590   57.5977 H       1  ZINC000809503567    0.1200
     41 H41       -13.5247   -0.3895   59.9927 H       1  ZINC000809503567    0.1200
     42 H42       -14.3662   -1.9965   61.6579 H       1  ZINC000809503567    0.1200
     43 H43       -15.2577   -4.1726   60.9280 H       1  ZINC000809503567    0.1200
     44 H44       -15.3113   -4.7402   58.5325 H       1  ZINC000809503567    0.1300
     45 H45       -10.7844    1.0074   59.6298 H       1  ZINC000809503567    0.1400
@<TRIPOS>BOND
     1     1     2    1
     2     1    27    1
     3     1    28    1
     4     1    29    1
     5     2     3    1
     6     3    24   ar
     7     3     4   ar
     8     4     5   ar
     9     4    30    1
    10     5     6   ar
    11     5    31    1
    12     6     7    1
    13     6    23   ar
    14     7     8    1
    15     7    32    1
    16     7    33    1
    17     8     9   am
    18     8    34    1
    19     9    10    2
    20     9    11    1
    21    11    12    2
    22    11    13   am
    23    13    14    1
    24    13    15    1
    25    14    35    1
    26    14    36    1
    27    14    37    1
    28    15    16    1
    29    16    17    1
    30    16    38    1
    31    16    39    1
    32    17    22   ar
    33    17    18   ar
    34    18    19   ar
    35    18    40    1
    36    19    20   ar
    37    19    41    1
    38    20    21   ar
    39    20    42    1
    40    21    22   ar
    41    21    43    1
    42    22    44    1
    43    23    24   ar
    44    23    45    1
    45    24    25    1
    46    25    26    3
@<TRIPOS>SUBSTRUCTURE
     1 ZINC000809503567        1 TEMP              0 ****  ****    0 ROOT


##########                                Name:    ZINC000654672208
##########                DOCK_Rotatable_Bonds:                   5
##########                         Heavy_Atoms:                  25
##########                    Molecular_Weight:             365.497
##########                DOCK_Rotatable_Bonds:                   5
##########                       Formal_Charge:           0.0100001
##########                     HBond_Acceptors:                   7
##########                        HBond_Donors:                   1
##########                         Heavy_Atoms:                  25
##########                          Grid_Score:          -34.738323
##########                     Grid_vdw_energy:          -33.832649
##########                      Grid_es_energy:           -0.905675
##########           Internal_energy_repulsive:           14.900747

@<TRIPOS>MOLECULE
ZINC000654672208
 52 54 1 0 0
SMALL
USER_CHARGES


@<TRIPOS>ATOM
      1 C1        -11.8318   -1.5928   51.6494 C.3     1  ZINC000654672208   -0.1100
      2 C2        -12.5245   -2.4486   52.6783 C.ar    1  ZINC000654672208   -0.1300
      3 C3        -11.8344   -3.4493   53.3354 C.ar    1  ZINC000654672208    0.1000
      4 N4        -12.4338   -4.2020   54.2374 N.ar    1  ZINC000654672208   -0.4700
      5 C5        -13.7042   -4.0334   54.5476 C.ar    1  ZINC000654672208    0.1200
      6 C6        -14.3414   -4.9208   55.5857 C.3     1  ZINC000654672208   -0.0900
      7 C7        -13.2726   -5.4066   56.5667 C.3     1  ZINC000654672208    0.1500
      8 N8        -12.6143   -4.2520   57.1829 N.am    1  ZINC000654672208   -0.7500
      9 C9        -11.4560   -4.4146   57.8525 C.2     1  ZINC000654672208    0.7100
     10 O10       -10.9575   -5.5197   57.9453 O.2     1  ZINC000654672208   -0.5800
     11 N11       -10.8504   -3.3524   58.4193 N.am    1  ZINC000654672208   -0.6300
     12 C12        -9.5874   -3.5146   59.1522 C.3     1  ZINC000654672208    0.1300
     13 C13        -9.7495   -2.9116   60.5511 C.3     1  ZINC000654672208   -0.1400
     14 C14       -10.2215   -1.4616   60.4263 C.3     1  ZINC000654672208   -0.1100
     15 C15       -11.5857   -1.4262   59.7271 C.3     1  ZINC000654672208   -0.0600
     16 C16       -12.0568    0.0277   59.6189 C.3     1  ZINC000654672208   -0.1200
     17 C17       -13.6069    0.0507   59.6326 C.3     1  ZINC000654672208   -0.5800
     18 S18       -13.9692   -1.1840   60.9454 S.o2    1  ZINC000654672208    2.3800
     19 O19       -13.7458   -0.6020   62.2223 O.2     1  ZINC000654672208   -0.9300
     20 O20       -15.2021   -1.8318   60.6638 O.2     1  ZINC000654672208   -0.9300
     21 C21       -12.5747   -2.2947   60.5234 C.3     1  ZINC000654672208   -0.5800
     22 C22       -11.4377   -2.0106   58.3103 C.3     1  ZINC000654672208    0.1200
     23 C23       -14.4581   -3.0521   53.9319 C.ar    1  ZINC000654672208   -0.1200
     24 C24       -15.9095   -2.8660   54.2927 C.3     1  ZINC000654672208   -0.1200
     25 C25       -13.8611   -2.2380   52.9818 C.ar    1  ZINC000654672208   -0.0800
     26 H26       -11.3930   -0.7221   52.1367 H       1  ZINC000654672208    0.0700
     27 H27       -11.0460   -2.1722   51.1644 H       1  ZINC000654672208    0.0700
     28 H28       -12.5551   -1.2652   50.9027 H       1  ZINC000654672208    0.0700
     29 H29       -10.7922   -3.6173   53.1074 H       1  ZINC000654672208    0.1600
     30 H30       -15.1025   -4.3584   56.1266 H       1  ZINC000654672208    0.0900
     31 H31       -14.8026   -5.7788   55.0967 H       1  ZINC000654672208    0.0900
     32 H32       -13.7399   -6.0146   57.3414 H       1  ZINC000654672208    0.0700
     33 H33       -12.5336   -6.0039   56.0326 H       1  ZINC000654672208    0.0700
     34 H34       -13.0121   -3.3704   57.1089 H       1  ZINC000654672208    0.3900
     35 H35        -9.3472   -4.5745   59.2365 H       1  ZINC000654672208    0.1000
     36 H36        -8.7879   -2.9974   58.6217 H       1  ZINC000654672208    0.0700
     37 H37       -10.4861   -3.4869   61.1120 H       1  ZINC000654672208    0.0700
     38 H38        -8.7925   -2.9390   61.0722 H       1  ZINC000654672208    0.0800
     39 H39       -10.3108   -1.0218   61.4195 H       1  ZINC000654672208    0.0800
     40 H40        -9.4985   -0.8934   59.8410 H       1  ZINC000654672208    0.0800
     41 H41       -11.6744    0.6007   60.4637 H       1  ZINC000654672208    0.1000
     42 H42       -11.6920    0.4629   58.6885 H       1  ZINC000654672208    0.1000
     43 H43       -13.9821    1.0365   59.9071 H       1  ZINC000654672208    0.1400
     44 H44       -14.0122   -0.2677   58.6722 H       1  ZINC000654672208    0.1400
     45 H45       -12.9258   -3.1249   59.9108 H       1  ZINC000654672208    0.1400
     46 H46       -12.1020   -2.6685   61.4316 H       1  ZINC000654672208    0.1400
     47 H47       -10.7882   -1.3681   57.7159 H       1  ZINC000654672208    0.0800
     48 H48       -12.4181   -2.0794   57.8390 H       1  ZINC000654672208    0.0800
     49 H49       -15.9912   -2.1543   55.1143 H       1  ZINC000654672208    0.0800
     50 H50       -16.4531   -2.4863   53.4276 H       1  ZINC000654672208    0.0700
     51 H51       -16.3337   -3.8228   54.5972 H       1  ZINC000654672208    0.0700
     52 H52       -14.4255   -1.4631   52.4845 H       1  ZINC000654672208    0.1300
@<TRIPOS>BOND
     1     1     2    1
     2     1    26    1
     3     1    27    1
     4     1    28    1
     5     2    25   ar
     6     2     3   ar
     7     3     4   ar
     8     3    29    1
     9     4     5   ar
    10     5     6    1
    11     5    23   ar
    12     6     7    1
    13     6    30    1
    14     6    31    1
    15     7     8    1
    16     7    32    1
    17     7    33    1
    18     8     9   am
    19     8    34    1
    20     9    10    2
    21     9    11   am
    22    11    22    1
    23    11    12    1
    24    12    13    1
    25    12    35    1
    26    12    36    1
    27    13    14    1
    28    13    37    1
    29    13    38    1
    30    14    15    1
    31    14    39    1
    32    14    40    1
    33    15    21    1
    34    15    16    1
    35    15    22    1
    36    16    17    1
    37    16    41    1
    38    16    42    1
    39    17    18    1
    40    17    43    1
    41    17    44    1
    42    18    19    2
    43    18    20    2
    44    18    21    1
    45    21    45    1
    46    21    46    1
    47    22    47    1
    48    22    48    1
    49    23    24    1
    50    23    25   ar
    51    24    49    1
    52    24    50    1
    53    24    51    1
    54    25    52    1
@<TRIPOS>SUBSTRUCTURE
     1 ZINC000654672208        1 TEMP              0 ****  ****    0 ROOT


##########                                Name:    ZINC000022858610
##########                DOCK_Rotatable_Bonds:                   9
##########                         Heavy_Atoms:                  26
##########                    Molecular_Weight:             369.343
##########                DOCK_Rotatable_Bonds:                   9
##########                       Formal_Charge:          0.00999956
##########                     HBond_Acceptors:                   9
##########                        HBond_Donors:                   2
##########                         Heavy_Atoms:                  26
##########                          Grid_Score:          -34.734196
##########                     Grid_vdw_energy:          -33.428978
##########                      Grid_es_energy:           -1.305219
##########           Internal_energy_repulsive:           17.806915

@<TRIPOS>MOLECULE
ZINC000022858610
 44 45 1 0 0
SMALL
USER_CHARGES


@<TRIPOS>ATOM
      1 C1        -14.6457   -3.2933   55.8861 C.3     1  <0>         0.0100
      2 N2        -13.7108   -3.8399   56.8785 N.3     1  <0>        -0.5300
      3 C3        -14.3174   -4.9579   57.6135 C.3     1  <0>         0.0200
      4 C4        -12.4502   -4.2488   56.2449 C.3     1  <0>         0.1500
      5 H5        -12.6383   -5.0785   55.5636 H       1  <0>         0.1200
      6 C6        -11.4572   -4.6890   57.3225 C.3     1  <0>         0.1300
      7 N7        -11.4595   -3.7143   58.4162 N.am    1  <0>        -0.6800
      8 C8        -10.3588   -3.5522   59.1768 C.2     1  <0>         0.5100
      9 O9         -9.3651   -4.2125   58.9548 O.2     1  <0>        -0.5100
     10 C10       -10.3618   -2.5597   60.2929 C.2     1  <0>         0.5200
     11 O11       -11.2940   -2.5223   61.0693 O.2     1  <0>        -0.4900
     12 N12        -9.3293   -1.7056   60.4380 N.am    1  <0>        -0.6500
     13 C13        -9.3322   -0.7771   61.4822 C.ar    1  <0>         0.1900
     14 C14        -8.7942   -1.1165   62.7170 C.ar    1  <0>        -0.1200
     15 C15        -8.7988   -0.1963   63.7470 C.ar    1  <0>        -0.0700
     16 C16        -9.3381    1.0616   63.5499 C.ar    1  <0>        -0.1300
     17 C17        -9.8751    1.4027   62.3218 C.ar    1  <0>        -0.0500
     18 C18        -9.8682    0.4898   61.2859 C.ar    1  <0>        -0.2100
     19 C19       -10.4535    0.8623   59.9481 C.3     1  <0>         0.5100
     20 F20       -10.7305    2.2334   59.9258 F       1  <0>        -0.1700
     21 F21        -9.5375    0.5550   58.9365 F       1  <0>        -0.1800
     22 F22       -11.6361    0.1443   59.7402 F       1  <0>        -0.1700
     23 C23       -11.8747   -3.0877   55.4758 C.2     1  <0>        -0.0500
     24 C24       -11.2250   -3.1671   54.3006 C.2     1  <0>        -0.1900
     25 C25       -10.8614   -1.8483   53.9436 C.2     1  <0>        -0.2100
     26 C26       -11.3106   -1.0418   54.9220 C.2     1  <0>        -0.0400
     27 O27       -11.9287   -1.7973   55.8445 O.3     1  <0>        -0.1700
     28 H28       -15.4883   -2.8284   56.3980 H       1  <0>         0.0700
     29 H29       -14.1344   -2.5477   55.2771 H       1  <0>         0.0700
     30 H30       -15.0083   -4.0981   55.2466 H       1  <0>         0.0500
     31 H31       -14.5866   -5.7492   56.9139 H       1  <0>         0.0300
     32 H32       -13.6039   -5.3437   58.3416 H       1  <0>         0.0700
     33 H33       -15.2119   -4.6101   58.1303 H       1  <0>         0.0800
     34 H34       -11.7477   -5.6668   57.7068 H       1  <0>         0.0900
     35 H35       -10.4575   -4.7500   56.8924 H       1  <0>         0.0800
     36 H36       -12.2533   -3.1855   58.5929 H       1  <0>         0.4200
     37 H37        -8.5844   -1.7354   59.8176 H       1  <0>         0.4300
     38 H38        -8.3730   -2.0989   62.8717 H       1  <0>         0.1500
     39 H39        -8.3809   -0.4595   64.7074 H       1  <0>         0.1400
     40 H40        -9.3404    1.7793   64.3570 H       1  <0>         0.1400
     41 H41       -10.2962    2.3858   62.1715 H       1  <0>         0.1500
     42 H42       -11.0200   -4.0659   53.7381 H       1  <0>         0.1500
     43 H43       -10.3255   -1.5464   53.0559 H       1  <0>         0.1500
     44 H44       -11.1971    0.0316   54.9576 H       1  <0>         0.2000
@<TRIPOS>BOND
     1     1     2    1
     2     1    28    1
     3     1    29    1
     4     1    30    1
     5     2     3    1
     6     2     4    1
     7     3    31    1
     8     3    32    1
     9     3    33    1
    10     4     5    1
    11     4     6    1
    12     4    23    1
    13     6     7    1
    14     6    34    1
    15     6    35    1
    16     7     8   am
    17     7    36    1
    18     8     9    2
    19     8    10    1
    20    10    11    2
    21    10    12   am
    22    12    13    1
    23    12    37    1
    24    13    18   ar
    25    13    14   ar
    26    14    15   ar
    27    14    38    1
    28    15    16   ar
    29    15    39    1
    30    16    17   ar
    31    16    40    1
    32    17    18   ar
    33    17    41    1
    34    18    19    1
    35    19    20    1
    36    19    21    1
    37    19    22    1
    38    23    27    1
    39    23    24    2
    40    24    25    1
    41    24    42    1
    42    25    26    2
    43    25    43    1
    44    26    27    1
    45    26    44    1
@<TRIPOS>SUBSTRUCTURE
     1 <0>         1 TEMP              0 ****  ****    0 ROOT


##########                                Name:    ZINC001574157642
##########                DOCK_Rotatable_Bonds:                   9
##########                         Heavy_Atoms:                  28
##########                    Molecular_Weight:             387.445
##########                DOCK_Rotatable_Bonds:                   9
##########                       Formal_Charge:          -0.0400004
##########                     HBond_Acceptors:                  11
##########                        HBond_Donors:                   4
##########                         Heavy_Atoms:                  28
##########                          Grid_Score:          -34.729351
##########                     Grid_vdw_energy:          -35.154911
##########                      Grid_es_energy:            0.425558
##########           Internal_energy_repulsive:           17.759533

@<TRIPOS>MOLECULE
ZINC001574157642
 53 55 1 0 0
SMALL
USER_CHARGES


@<TRIPOS>ATOM
      1 C1        -12.9611   -2.2839   53.5867 C.3     1  ZINC001574157642   -0.1400
      2 C2        -12.2496   -3.1889   54.5945 C.3     1  ZINC001574157642   -0.0900
      3 C3        -10.7967   -3.3923   54.1603 C.3     1  ZINC001574157642   -0.1500
      4 C4        -12.2819   -2.5362   55.9778 C.3     1  ZINC001574157642   -0.1300
      5 C5        -12.3856   -3.6213   57.0516 C.3     1  ZINC001574157642    0.1300
      6 H6        -11.6915   -4.4291   56.8199 H       1  ZINC001574157642    0.1100
      7 C7        -13.8135   -4.1698   57.0861 C.3     1  ZINC001574157642    0.1100
      8 N8        -14.7466   -3.0834   57.3944 N.pl3   1  ZINC001574157642   -0.7100
      9 C9        -14.8520   -2.6062   58.6949 C.ar    1  ZINC001574157642    0.3700
     10 C10       -15.2175   -1.2806   58.9230 C.ar    1  ZINC001574157642    0.0000
     11 N11       -15.3173   -0.8270   60.1567 N.ar    1  ZINC001574157642   -0.3700
     12 C12       -15.0694   -1.6344   61.1842 C.ar    1  ZINC001574157642    0.0800
     13 C13       -15.1820   -1.1243   62.5731 C.2     1  ZINC001574157642    0.2300
     14 N14       -15.7123    0.0225   62.9502 N.2     1  ZINC001574157642   -0.2700
     15 N15       -15.6199    0.0963   64.2335 N.pl3   1  ZINC001574157642   -0.2300
     16 N16       -15.0481   -0.9666   64.6814 N.2     1  ZINC001574157642   -0.0400
     17 N17       -14.7696   -1.7422   63.6892 N.2     1  ZINC001574157642   -0.2600
     18 C18       -14.7045   -2.9592   60.9560 C.ar    1  ZINC001574157642    0.1600
     19 N19       -14.6097   -3.4141   59.7199 N.ar    1  ZINC001574157642   -0.5000
     20 N20       -12.0506   -3.0492   58.3579 N.am    1  ZINC001574157642   -0.7300
     21 C21       -10.7630   -2.9682   58.7479 C.2     1  ZINC001574157642    0.5200
     22 O22        -9.8819   -3.3702   58.0180 O.2     1  ZINC001574157642   -0.5100
     23 C23       -10.4182   -2.3780   60.0910 C.3     1  ZINC001574157642   -0.1300
     24 H24       -11.1808   -2.6552   60.8189 H       1  ZINC001574157642    0.1100
     25 C25       -10.3455   -0.8505   59.9785 C.3     1  ZINC001574157642   -0.1000
     26 C26       -10.1762   -0.2693   61.3844 C.3     1  ZINC001574157642   -0.1400
     27 C27        -9.0744   -0.9906   62.1062 C.2     1  ZINC001574157642    0.5200
     28 O28        -8.5899   -0.4650   63.0861 O.2     1  ZINC001574157642   -0.5500
     29 N29        -8.6006   -2.1783   61.7279 N.am    1  ZINC001574157642   -0.7200
     30 C30        -9.0572   -2.9041   60.5485 C.3     1  ZINC001574157642    0.1200
     31 H31       -12.4560   -1.3189   53.5450 H       1  ZINC001574157642    0.0400
     32 H32       -12.9381   -2.7489   52.6012 H       1  ZINC001574157642    0.0500
     33 H33       -13.9963   -2.1390   53.8960 H       1  ZINC001574157642    0.0700
     34 H34       -12.7548   -4.1539   54.6362 H       1  ZINC001574157642    0.0700
     35 H35       -10.2915   -2.4273   54.1187 H       1  ZINC001574157642    0.0500
     36 H36       -10.2898   -4.0370   54.8783 H       1  ZINC001574157642    0.0500
     37 H37       -10.7737   -3.8573   53.1748 H       1  ZINC001574157642    0.0500
     38 H38       -11.3686   -1.9610   56.1297 H       1  ZINC001574157642    0.0700
     39 H39       -13.1444   -1.8733   56.0468 H       1  ZINC001574157642    0.0800
     40 H40       -14.0620   -4.5976   56.1147 H       1  ZINC001574157642    0.0800
     41 H41       -13.8879   -4.9413   57.8526 H       1  ZINC001574157642    0.0900
     42 H42       -15.2910   -2.6971   56.6905 H       1  ZINC001574157642    0.4100
     43 H43       -15.4188   -0.6250   58.0888 H       1  ZINC001574157642    0.1700
     44 H44       -15.9318    0.8370   64.7767 H       1  ZINC001574157642    0.4800
     45 H45       -14.5028   -3.6152   61.7899 H       1  ZINC001574157642    0.1800
     46 H46       -12.7554   -2.7287   58.9423 H       1  ZINC001574157642    0.4000
     47 H47        -9.4936   -0.5683   59.3597 H       1  ZINC001574157642    0.0800
     48 H48       -11.2650   -0.4712   59.5328 H       1  ZINC001574157642    0.0900
     49 H49        -9.9284    0.7897   61.3111 H       1  ZINC001574157642    0.1100
     50 H50       -11.1079   -0.3844   61.9383 H       1  ZINC001574157642    0.1000
     51 H51        -7.9098   -2.5867   62.2727 H       1  ZINC001574157642    0.4000
     52 H52        -9.1373   -3.9647   60.7869 H       1  ZINC001574157642    0.0800
     53 H53        -8.3350   -2.7727   59.7427 H       1  ZINC001574157642    0.0700
@<TRIPOS>BOND
     1     1     2    1
     2     1    31    1
     3     1    32    1
     4     1    33    1
     5     2     3    1
     6     2     4    1
     7     2    34    1
     8     3    35    1
     9     3    36    1
    10     3    37    1
    11     4     5    1
    12     4    38    1
    13     4    39    1
    14     5     6    1
    15     5     7    1
    16     5    20    1
    17     7     8    1
    18     7    40    1
    19     7    41    1
    20     8     9    1
    21     8    42    1
    22     9    19   ar
    23     9    10   ar
    24    10    11   ar
    25    10    43    1
    26    11    12   ar
    27    12    13    1
    28    12    18   ar
    29    13    17    1
    30    13    14    2
    31    14    15    1
    32    15    16    1
    33    15    44    1
    34    16    17    2
    35    18    19   ar
    36    18    45    1
    37    20    21   am
    38    20    46    1
    39    21    22    2
    40    21    23    1
    41    23    24    1
    42    23    30    1
    43    23    25    1
    44    25    26    1
    45    25    47    1
    46    25    48    1
    47    26    27    1
    48    26    49    1
    49    26    50    1
    50    27    28    2
    51    27    29   am
    52    29    30    1
    53    29    51    1
    54    30    52    1
    55    30    53    1
@<TRIPOS>SUBSTRUCTURE
     1 ZINC001574157642        1 TEMP              0 ****  ****    0 ROOT


##########                                Name:    ZINC000929592477
##########                DOCK_Rotatable_Bonds:                   7
##########                         Heavy_Atoms:                  28
##########                    Molecular_Weight:             399.517
##########                DOCK_Rotatable_Bonds:                   7
##########                       Formal_Charge:         -8.9407e-08
##########                     HBond_Acceptors:                   8
##########                        HBond_Donors:                   3
##########                         Heavy_Atoms:                  28
##########                          Grid_Score:          -34.722836
##########                     Grid_vdw_energy:          -33.419800
##########                      Grid_es_energy:           -1.303035
##########           Internal_energy_repulsive:           14.920728

@<TRIPOS>MOLECULE
ZINC000929592477
 53 56 1 0 0
SMALL
USER_CHARGES


@<TRIPOS>ATOM
      1 O1         -6.4336    2.7532   51.2645 O.2     1  ZINC000929592477   -0.5700
      2 C2         -6.1075    2.5866   52.4241 C.2     1  ZINC000929592477    0.7100
      3 N3         -4.8024    2.5190   52.7539 N.am    1  ZINC000929592477   -0.6800
      4 C4         -3.8211    2.6351   51.7595 C.ar    1  ZINC000929592477    0.1600
      5 C5         -3.7741    1.7158   50.7199 C.ar    1  ZINC000929592477   -0.1300
      6 C6         -2.8077    1.8295   49.7407 C.ar    1  ZINC000929592477   -0.0800
      7 C7         -1.8821    2.8643   49.7954 C.ar    1  ZINC000929592477   -0.1000
      8 S8         -0.6487    3.0103   48.5456 S.3     1  ZINC000929592477   -0.1100
      9 C9         -1.1898    1.8117   47.2961 C.3     1  ZINC000929592477   -0.0800
     10 C10        -2.3912    2.3701   46.4937 C.3     1  ZINC000929592477   -0.1200
     11 C11        -2.3181    1.5714   45.1686 C.3     1  ZINC000929592477   -0.1200
     12 C12        -0.8070    1.4515   44.8821 C.3     1  ZINC000929592477   -0.1200
     13 C13        -0.0896    1.6042   46.2348 C.3     1  ZINC000929592477   -0.1000
     14 C14        -1.9297    3.7842   50.8355 C.ar    1  ZINC000929592477   -0.1200
     15 C15        -2.8998    3.6727   51.8113 C.ar    1  ZINC000929592477   -0.1000
     16 N16        -7.0509    2.4749   53.3801 N.am    1  ZINC000929592477   -0.7300
     17 C17        -8.4694    2.5484   53.0215 C.3     1  ZINC000929592477    0.1500
     18 H18        -8.6259    3.2680   52.2179 H       1  ZINC000929592477    0.1200
     19 C19        -9.3305    2.9126   54.2598 C.3     1  ZINC000929592477   -0.1400
     20 C20        -9.5043    1.5294   54.9353 C.3     1  ZINC000929592477    0.1100
     21 N21        -9.6418    0.5781   53.8176 N.pl3   1  ZINC000929592477   -0.6000
     22 C22       -10.2655   -0.6513   53.8799 C.2     1  ZINC000929592477    0.4600
     23 C23       -10.2919   -1.4768   52.7682 C.2     1  ZINC000929592477   -0.4000
     24 C24       -10.9357   -2.7175   52.8735 C.2     1  ZINC000929592477    0.5300
     25 O25       -10.9828   -3.4769   51.9188 O.2     1  ZINC000929592477   -0.5500
     26 N26       -11.5024   -3.0566   54.0504 N.am    1  ZINC000929592477   -0.6400
     27 C27       -11.4463   -2.2131   55.1003 C.2     1  ZINC000929592477    0.4100
     28 N28       -10.8460   -1.0575   55.0200 N.2     1  ZINC000929592477   -0.5700
     29 C29        -9.0040    1.1573   52.6205 C.3     1  ZINC000929592477    0.1100
     30 H30        -4.5422    2.3901   53.6794 H       1  ZINC000929592477    0.4100
     31 H31        -4.4935    0.9115   50.6776 H       1  ZINC000929592477    0.1300
     32 H32        -2.7708    1.1140   48.9326 H       1  ZINC000929592477    0.1300
     33 H33        -1.4501    0.8634   47.7661 H       1  ZINC000929592477    0.1000
     34 H34        -3.3286    2.1714   47.0133 H       1  ZINC000929592477    0.0700
     35 H35        -2.2696    3.4374   46.3086 H       1  ZINC000929592477    0.0800
     36 H36        -2.7623    0.5838   45.2935 H       1  ZINC000929592477    0.0700
     37 H37        -2.8163    2.1163   44.3668 H       1  ZINC000929592477    0.0700
     38 H38        -0.5852    0.4756   44.4500 H       1  ZINC000929592477    0.0700
     39 H39        -0.4922    2.2421   44.2011 H       1  ZINC000929592477    0.0700
     40 H40         0.5733    2.4691   46.2103 H       1  ZINC000929592477    0.0700
     41 H41         0.4802    0.7026   46.4591 H       1  ZINC000929592477    0.0800
     42 H42        -1.2105    4.5888   50.8783 H       1  ZINC000929592477    0.1300
     43 H43        -2.9372    4.3880   52.6197 H       1  ZINC000929592477    0.1400
     44 H44        -6.7906    2.3459   54.3056 H       1  ZINC000929592477    0.4000
     45 H45        -8.8000    3.6035   54.9150 H       1  ZINC000929592477    0.0900
     46 H46       -10.2937    3.3241   53.9584 H       1  ZINC000929592477    0.0900
     47 H47        -8.6265    1.2868   55.5343 H       1  ZINC000929592477    0.0700
     48 H48       -10.4014    1.5196   55.5543 H       1  ZINC000929592477    0.0800
     49 H49        -9.8277   -1.1718   51.8421 H       1  ZINC000929592477    0.1500
     50 H50       -11.9525   -3.9111   54.1410 H       1  ZINC000929592477    0.4200
     51 H51       -11.9063   -2.5032   56.0333 H       1  ZINC000929592477    0.2100
     52 H52        -9.7377    1.2558   51.8205 H       1  ZINC000929592477    0.0900
     53 H53        -8.1805    0.5218   52.2950 H       1  ZINC000929592477    0.0800
@<TRIPOS>BOND
     1     1     2    2
     2     2     3   am
     3     2    16   am
     4     3     4    1
     5     3    30    1
     6     4    15   ar
     7     4     5   ar
     8     5     6   ar
     9     5    31    1
    10     6     7   ar
    11     6    32    1
    12     7     8    1
    13     7    14   ar
    14     8     9    1
    15     9    13    1
    16     9    10    1
    17     9    33    1
    18    10    11    1
    19    10    34    1
    20    10    35    1
    21    11    12    1
    22    11    36    1
    23    11    37    1
    24    12    13    1
    25    12    38    1
    26    12    39    1
    27    13    40    1
    28    13    41    1
    29    14    15   ar
    30    14    42    1
    31    15    43    1
    32    16    17    1
    33    16    44    1
    34    17    18    1
    35    17    29    1
    36    17    19    1
    37    19    20    1
    38    19    45    1
    39    19    46    1
    40    20    21    1
    41    20    47    1
    42    20    48    1
    43    21    22    1
    44    21    29    1
    45    22    28    1
    46    22    23    2
    47    23    24    1
    48    23    49    1
    49    24    25    2
    50    24    26   am
    51    26    27    1
    52    26    50    1
    53    27    28    2
    54    27    51    1
    55    29    52    1
    56    29    53    1
@<TRIPOS>SUBSTRUCTURE
     1 ZINC000929592477        1 TEMP              0 ****  ****    0 ROOT


##########                                Name:    ZINC000548281822
##########                DOCK_Rotatable_Bonds:                   6
##########                         Heavy_Atoms:                  24
##########                    Molecular_Weight:             332.406
##########                DOCK_Rotatable_Bonds:                   6
##########                       Formal_Charge:        -5.58794e-08
##########                     HBond_Acceptors:                   8
##########                        HBond_Donors:                   2
##########                         Heavy_Atoms:                  24
##########                          Grid_Score:          -34.719543
##########                     Grid_vdw_energy:          -33.796623
##########                      Grid_es_energy:           -0.922922
##########           Internal_energy_repulsive:            9.135201

@<TRIPOS>MOLECULE
ZINC000548281822
 48 50 1 0 0
SMALL
USER_CHARGES


@<TRIPOS>ATOM
      1 C1         -1.2986    2.5412   50.4951 C.3     1  ZINC000548281822   -0.1700
      2 C2         -2.6316    2.5704   49.7444 C.3     1  ZINC000548281822    0.2600
      3 H3         -2.7315    3.5198   49.2183 H       1  ZINC000548281822    0.1400
      4 N4         -2.6722    1.4700   48.7783 N.am    1  ZINC000548281822   -0.7400
      5 C5         -2.0967    1.6141   47.5682 C.2     1  ZINC000548281822    0.7100
      6 O6         -1.5451    2.6580   47.2777 O.2     1  ZINC000548281822   -0.5700
      7 N7         -2.1327    0.6012   46.6798 N.am    1  ZINC000548281822   -0.7400
      8 C8         -1.5056    0.7572   45.3651 C.3     1  ZINC000548281822    0.1600
      9 H9         -1.8611    1.6762   44.8990 H       1  ZINC000548281822    0.1000
     10 C10         0.0158    0.8222   45.5286 C.3     1  ZINC000548281822   -0.1400
     11 C11         0.6572    1.2184   44.1942 C.3     1  ZINC000548281822    0.1100
     12 N12         0.1269    0.3510   43.1397 N.pl3   1  ZINC000548281822   -0.4600
     13 C13         0.6420    0.1383   41.8957 C.2     1  ZINC000548281822   -0.0500
     14 C14        -0.1811   -0.7344   41.2797 C.2     1  ZINC000548281822   -0.0300
     15 N15        -1.1728   -1.0435   42.1308 N.2     1  ZINC000548281822   -0.4900
     16 C16        -0.9964   -0.3978   43.2463 C.2     1  ZINC000548281822    0.2100
     17 C17        -1.8691   -0.4407   44.4786 C.3     1  ZINC000548281822   -0.0500
     18 C18        -3.7645    2.4189   50.7265 C.2     1  ZINC000548281822    0.1700
     19 N19        -5.0172    2.1583   50.4395 N.2     1  ZINC000548281822   -0.4600
     20 C20        -5.6579    2.1149   51.6213 C.2     1  ZINC000548281822    0.1900
     21 C21        -7.1259    1.8461   51.8306 C.3     1  ZINC000548281822    0.0200
     22 C22        -7.9319    2.5246   50.7212 C.3     1  ZINC000548281822   -0.1400
     23 C23        -7.3783    0.3374   51.7946 C.3     1  ZINC000548281822   -0.1400
     24 C24        -7.5578    2.4031   53.1885 C.3     1  ZINC000548281822   -0.1400
     25 N25        -4.7786    2.3471   52.5494 N.2     1  ZINC000548281822   -0.3700
     26 O26        -3.6834    2.5186   52.0567 O.3     1  ZINC000548281822    0.0800
     27 H27        -1.1987    1.5918   51.0213 H       1  ZINC000548281822    0.0700
     28 H28        -0.4792    2.6509   49.7848 H       1  ZINC000548281822    0.0900
     29 H29        -1.2684    3.3600   51.2139 H       1  ZINC000548281822    0.0800
     30 H30        -3.1133    0.6376   49.0096 H       1  ZINC000548281822    0.4000
     31 H31        -2.5738   -0.2312   46.9111 H       1  ZINC000548281822    0.4000
     32 H32         0.2683    1.5631   46.2870 H       1  ZINC000548281822    0.1000
     33 H33         0.3901   -0.1543   45.8358 H       1  ZINC000548281822    0.0800
     34 H34         0.4176    2.2572   43.9678 H       1  ZINC000548281822    0.0900
     35 H35         1.7386    1.0963   44.2582 H       1  ZINC000548281822    0.1000
     36 H36         1.5357    0.5829   41.4832 H       1  ZINC000548281822    0.1800
     37 H37        -0.0637   -1.1172   40.2767 H       1  ZINC000548281822    0.1700
     38 H38        -1.6911   -1.3681   45.0231 H       1  ZINC000548281822    0.0900
     39 H39        -2.9180   -0.3794   44.1886 H       1  ZINC000548281822    0.1000
     40 H40        -7.6242    2.1277   49.7537 H       1  ZINC000548281822    0.0600
     41 H41        -8.9937    2.3302   50.8726 H       1  ZINC000548281822    0.0700
     42 H42        -7.7521    3.5994   50.7468 H       1  ZINC000548281822    0.0700
     43 H43        -6.8041   -0.1459   52.5850 H       1  ZINC000548281822    0.0600
     44 H44        -8.4400    0.1431   51.9460 H       1  ZINC000548281822    0.0700
     45 H45        -7.0706   -0.0595   50.8272 H       1  ZINC000548281822    0.0600
     46 H46        -7.3781    3.4780   53.2142 H       1  ZINC000548281822    0.0700
     47 H47        -8.6196    2.2087   53.3399 H       1  ZINC000548281822    0.0700
     48 H48        -6.9837    1.9198   53.9789 H       1  ZINC000548281822    0.0600
@<TRIPOS>BOND
     1     1     2    1
     2     1    27    1
     3     1    28    1
     4     1    29    1
     5     2     3    1
     6     2     4    1
     7     2    18    1
     8     4     5   am
     9     4    30    1
    10     5     6    2
    11     5     7   am
    12     7     8    1
    13     7    31    1
    14     8     9    1
    15     8    17    1
    16     8    10    1
    17    10    11    1
    18    10    32    1
    19    10    33    1
    20    11    12    1
    21    11    34    1
    22    11    35    1
    23    12    16    1
    24    12    13    1
    25    13    14    2
    26    13    36    1
    27    14    15    1
    28    14    37    1
    29    15    16    2
    30    16    17    1
    31    17    38    1
    32    17    39    1
    33    18    26    1
    34    18    19    2
    35    19    20    1
    36    20    21    1
    37    20    25    2
    38    21    22    1
    39    21    23    1
    40    21    24    1
    41    22    40    1
    42    22    41    1
    43    22    42    1
    44    23    43    1
    45    23    44    1
    46    23    45    1
    47    24    46    1
    48    24    47    1
    49    24    48    1
    50    25    26    1
@<TRIPOS>SUBSTRUCTURE
     1 ZINC000548281822        1 TEMP              0 ****  ****    0 ROOT


##########                                Name:    ZINC000523153175
##########                DOCK_Rotatable_Bonds:                   9
##########                         Heavy_Atoms:                  30
##########                    Molecular_Weight:             413.603
##########                DOCK_Rotatable_Bonds:                   9
##########                       Formal_Charge:           0.0499987
##########                     HBond_Acceptors:                   5
##########                        HBond_Donors:                   1
##########                         Heavy_Atoms:                  30
##########                          Grid_Score:          -34.695816
##########                     Grid_vdw_energy:          -34.732616
##########                      Grid_es_energy:            0.036799
##########           Internal_energy_repulsive:           37.515072

@<TRIPOS>MOLECULE
ZINC000523153175
 69 71 1 0 0
SMALL
USER_CHARGES


@<TRIPOS>ATOM
      1 C1        -15.1869   -3.2399   56.1291 C.3     1  ZINC000523153175   -0.1500
      2 C2        -14.6085   -4.2955   57.0737 C.3     1  ZINC000523153175   -0.0600
      3 C3        -14.0933   -5.4827   56.2577 C.3     1  ZINC000523153175   -0.1400
      4 C4        -13.4720   -3.6962   57.8612 C.ar    1  ZINC000523153175   -0.0800
      5 C5        -12.1667   -3.8968   57.4527 C.ar    1  ZINC000523153175   -0.1100
      6 C6        -11.1242   -3.3470   58.1750 C.ar    1  ZINC000523153175   -0.1100
      7 C7        -11.3870   -2.5963   59.3057 C.ar    1  ZINC000523153175   -0.0800
      8 C8        -10.2503   -1.9974   60.0935 C.3     1  ZINC000523153175   -0.0300
      9 H9        -10.6511   -1.3841   60.9005 H       1  ZINC000523153175    0.0800
     10 C10        -9.3921   -3.1185   60.6830 C.3     1  ZINC000523153175   -0.1500
     11 C11        -9.3923   -1.1295   59.1710 C.3     1  ZINC000523153175   -0.1300
     12 C12       -10.1546    0.1168   58.8015 C.2     1  ZINC000523153175    0.5200
     13 O13       -11.2303    0.3439   59.3135 O.2     1  ZINC000523153175   -0.5300
     14 N14        -9.6411    0.9791   57.9019 N.am    1  ZINC000523153175   -0.6200
     15 C15        -8.3420    0.7190   57.2631 C.3     1  ZINC000523153175    0.1100
     16 C16        -8.5110    0.8488   55.7457 C.3     1  ZINC000523153175    0.0400
     17 N17        -9.1069    2.1545   55.4325 N.3     1  ZINC000523153175   -0.5100
     18 C18        -9.1275    2.3895   53.9825 C.3     1  ZINC000523153175    0.0600
     19 H19        -9.8971    3.1237   53.7443 H       1  ZINC000523153175    0.1100
     20 C20        -7.7635    2.9158   53.5317 C.3     1  ZINC000523153175   -0.1800
     21 C21        -9.4283    1.0969   53.2684 C.2     1  ZINC000523153175    0.5200
     22 O22        -8.5235    0.4347   52.8063 O.2     1  ZINC000523153175   -0.5200
     23 N23       -10.7029    0.6769   53.1434 N.am    1  ZINC000523153175   -0.7200
     24 C24       -10.9951   -0.5805   52.4508 C.3     1  ZINC000523153175    0.1400
     25 C25       -10.7549   -1.7739   53.3983 C.3     1  ZINC000523153175   -0.1300
     26 C26       -12.1557   -2.0838   53.9818 C.3     1  ZINC000523153175   -0.1300
     27 C27       -13.0904   -1.8503   52.7690 C.3     1  ZINC000523153175   -0.1300
     28 C28       -12.4802   -0.6290   52.0507 C.3     1  ZINC000523153175   -0.1300
     29 C29       -10.4542    2.2765   56.0048 C.3     1  ZINC000523153175    0.0400
     30 C30       -10.3677    2.2021   57.5283 C.3     1  ZINC000523153175    0.1200
     31 C31       -12.6923   -2.3946   59.7134 C.ar    1  ZINC000523153175   -0.1100
     32 C32       -13.7350   -2.9411   58.9889 C.ar    1  ZINC000523153175   -0.1200
     33 H33       -16.0089   -3.6733   55.5594 H       1  ZINC000523153175    0.0600
     34 H34       -15.5538   -2.3941   56.7105 H       1  ZINC000523153175    0.0600
     35 H35       -14.4097   -2.9002   55.4444 H       1  ZINC000523153175    0.0600
     36 H36       -15.3857   -4.6351   57.7584 H       1  ZINC000523153175    0.0800
     37 H37       -13.3162   -5.1431   55.5730 H       1  ZINC000523153175    0.0600
     38 H38       -13.6812   -6.2347   56.9306 H       1  ZINC000523153175    0.0600
     39 H39       -14.9154   -5.9162   55.6880 H       1  ZINC000523153175    0.0600
     40 H40       -11.9614   -4.4832   56.5693 H       1  ZINC000523153175    0.1200
     41 H41       -10.1043   -3.5043   57.8563 H       1  ZINC000523153175    0.1200
     42 H42        -8.5699   -2.6854   61.2527 H       1  ZINC000523153175    0.0800
     43 H43       -10.0034   -3.7370   61.3401 H       1  ZINC000523153175    0.0600
     44 H44        -8.9913   -3.7319   59.8759 H       1  ZINC000523153175    0.0500
     45 H45        -8.4715   -0.8532   59.6848 H       1  ZINC000523153175    0.0900
     46 H46        -9.1503   -1.6887   58.2672 H       1  ZINC000523153175    0.0900
     47 H47        -7.6096    1.4463   57.6136 H       1  ZINC000523153175    0.0800
     48 H48        -8.0082   -0.2890   57.5095 H       1  ZINC000523153175    0.0900
     49 H49        -7.5370    0.7683   55.2630 H       1  ZINC000523153175    0.0900
     50 H50        -9.1638    0.0548   55.3831 H       1  ZINC000523153175    0.0400
     51 H51        -6.9939    2.1815   53.7698 H       1  ZINC000523153175    0.0700
     52 H52        -7.7788    3.0901   52.4558 H       1  ZINC000523153175    0.0700
     53 H53        -7.5459    3.8507   54.0482 H       1  ZINC000523153175    0.0700
     54 H54       -11.4266    1.2072   53.5120 H       1  ZINC000523153175    0.4000
     55 H55       -10.3666   -0.6735   51.5651 H       1  ZINC000523153175    0.0900
     56 H56       -10.3746   -2.6314   52.8430 H       1  ZINC000523153175    0.0700
     57 H57       -10.0631   -1.4963   54.1937 H       1  ZINC000523153175    0.0700
     58 H58       -12.2131   -3.1184   54.3201 H       1  ZINC000523153175    0.0700
     59 H59       -12.3968   -1.3970   54.7933 H       1  ZINC000523153175    0.0700
     60 H60       -13.0875   -2.7200   52.1121 H       1  ZINC000523153175    0.0700
     61 H61       -14.1033   -1.6283   53.1052 H       1  ZINC000523153175    0.0700
     62 H62       -12.9834    0.2830   52.3719 H       1  ZINC000523153175    0.0700
     63 H63       -12.5723   -0.7464   50.9710 H       1  ZINC000523153175    0.0800
     64 H64       -10.8895    3.2313   55.7100 H       1  ZINC000523153175    0.1000
     65 H65       -11.0800    1.4626   55.6386 H       1  ZINC000523153175    0.0400
     66 H66       -11.3720    2.1768   57.9513 H       1  ZINC000523153175    0.1000
     67 H67        -9.8295    3.0709   57.9074 H       1  ZINC000523153175    0.0800
     68 H68       -12.8976   -1.8078   60.5966 H       1  ZINC000523153175    0.1200
     69 H69       -14.7548   -2.7835   59.3074 H       1  ZINC000523153175    0.1200
@<TRIPOS>BOND
     1     1     2    1
     2     1    33    1
     3     1    34    1
     4     1    35    1
     5     2     3    1
     6     2     4    1
     7     2    36    1
     8     3    37    1
     9     3    38    1
    10     3    39    1
    11     4    32   ar
    12     4     5   ar
    13     5     6   ar
    14     5    40    1
    15     6     7   ar
    16     6    41    1
    17     7     8    1
    18     7    31   ar
    19     8     9    1
    20     8    10    1
    21     8    11    1
    22    10    42    1
    23    10    43    1
    24    10    44    1
    25    11    12    1
    26    11    45    1
    27    11    46    1
    28    12    13    2
    29    12    14   am
    30    14    30    1
    31    14    15    1
    32    15    16    1
    33    15    47    1
    34    15    48    1
    35    16    17    1
    36    16    49    1
    37    16    50    1
    38    17    18    1
    39    17    29    1
    40    18    19    1
    41    18    20    1
    42    18    21    1
    43    20    51    1
    44    20    52    1
    45    20    53    1
    46    21    22    2
    47    21    23   am
    48    23    24    1
    49    23    54    1
    50    24    28    1
    51    24    25    1
    52    24    55    1
    53    25    26    1
    54    25    56    1
    55    25    57    1
    56    26    27    1
    57    26    58    1
    58    26    59    1
    59    27    28    1
    60    27    60    1
    61    27    61    1
    62    28    62    1
    63    28    63    1
    64    29    30    1
    65    29    64    1
    66    29    65    1
    67    30    66    1
    68    30    67    1
    69    31    32   ar
    70    31    68    1
    71    32    69    1
@<TRIPOS>SUBSTRUCTURE
     1 ZINC000523153175        1 TEMP              0 ****  ****    0 ROOT


##########                                Name:    ZINC001300804061
##########                DOCK_Rotatable_Bonds:                   5
##########                         Heavy_Atoms:                  27
##########                    Molecular_Weight:              390.55
##########                DOCK_Rotatable_Bonds:                   5
##########                       Formal_Charge:                0.01
##########                     HBond_Acceptors:                   7
##########                        HBond_Donors:                   0
##########                         Heavy_Atoms:                  27
##########                          Grid_Score:          -34.693073
##########                     Grid_vdw_energy:          -33.587666
##########                      Grid_es_energy:           -1.105407
##########           Internal_energy_repulsive:           16.819756

@<TRIPOS>MOLECULE
ZINC001300804061
 57 60 1 0 0
SMALL
USER_CHARGES


@<TRIPOS>ATOM
      1 C1        -10.9138   -2.6944   53.3298 C.3     1  ZINC001300804061    0.0300
      2 O2        -11.2677   -3.6704   54.3119 O.3     1  ZINC001300804061   -0.3800
      3 C3        -12.0045   -3.1426   55.4167 C.3     1  ZINC001300804061    0.1000
      4 H4        -12.3529   -2.1384   55.1753 H       1  ZINC001300804061    0.0700
      5 C5        -11.1032   -3.0875   56.6521 C.3     1  ZINC001300804061    0.0500
      6 N6        -11.8658   -2.5649   57.7931 N.3     1  ZINC001300804061   -0.4600
      7 C7        -11.0470   -2.3791   58.8940 C.2     1  ZINC001300804061    0.3600
      8 N8        -10.0673   -3.1654   59.2771 N.2     1  ZINC001300804061   -0.3000
      9 N9         -9.5131   -2.6976   60.3380 N.2     1  ZINC001300804061   -0.2500
     10 C10       -10.1066   -1.5808   60.6982 C.2     1  ZINC001300804061    0.2600
     11 C11        -9.7657   -0.7434   61.8591 C.2     1  ZINC001300804061    0.0400
     12 C12        -8.8038   -1.0137   62.7856 C.2     1  ZINC001300804061   -0.1300
     13 C13        -8.8223    0.0482   63.7104 C.2     1  ZINC001300804061   -0.2100
     14 C14        -9.7823    0.9053   63.3097 C.2     1  ZINC001300804061    0.0100
     15 C15       -10.1566    2.1905   64.0020 C.3     1  ZINC001300804061   -0.0800
     16 O16       -10.3463    0.4274   62.1881 O.3     1  ZINC001300804061   -0.1700
     17 N17       -11.1044   -1.3407   59.7795 N.pl3   1  ZINC001300804061   -0.4600
     18 C18       -12.0378   -0.2118   59.7609 C.3     1  ZINC001300804061    0.1200
     19 C19       -13.3280   -0.6047   60.4834 C.3     1  ZINC001300804061   -0.1000
     20 H20       -13.8893   -1.3059   59.8657 H       1  ZINC001300804061    0.0900
     21 C21       -14.1717    0.6428   60.7280 C.3     1  ZINC001300804061   -0.1200
     22 C22       -15.5719    0.2634   61.2008 C.3     1  ZINC001300804061   -0.1200
     23 C23       -15.5095   -0.2923   62.6259 C.3     1  ZINC001300804061   -0.0800
     24 S24       -14.5183   -1.8157   62.6189 S.3     1  ZINC001300804061   -0.2600
     25 C25       -12.9809   -1.2685   61.8186 C.3     1  ZINC001300804061   -0.0700
     26 C26       -12.9977   -3.4409   58.1211 C.3     1  ZINC001300804061    0.0600
     27 C27       -13.9556   -3.5067   56.9294 C.3     1  ZINC001300804061   -0.1100
     28 C28       -13.2070   -4.0450   55.7071 C.3     1  ZINC001300804061   -0.0900
     29 H29       -12.8604   -5.0584   55.9093 H       1  ZINC001300804061    0.0800
     30 C30       -14.1443   -4.0570   54.4978 C.3     1  ZINC001300804061   -0.1400
     31 H31       -11.8189   -2.2409   52.9256 H       1  ZINC001300804061    0.0400
     32 H32       -10.2955   -1.9238   53.7900 H       1  ZINC001300804061    0.0400
     33 H33       -10.3572   -3.1743   52.5249 H       1  ZINC001300804061    0.0900
     34 H34       -10.7434   -4.0899   56.8844 H       1  ZINC001300804061    0.0700
     35 H35       -10.2538   -2.4340   56.4533 H       1  ZINC001300804061    0.0800
     36 H36        -8.1534   -1.8756   62.8068 H       1  ZINC001300804061    0.1600
     37 H37        -8.1871    0.1555   64.5772 H       1  ZINC001300804061    0.1600
     38 H38        -9.5569    3.0074   63.6005 H       1  ZINC001300804061    0.0900
     39 H39       -11.2133    2.3991   63.8344 H       1  ZINC001300804061    0.0800
     40 H40        -9.9703    2.0947   65.0716 H       1  ZINC001300804061    0.0900
     41 H41       -11.5851    0.6423   60.2646 H       1  ZINC001300804061    0.1100
     42 H42       -12.2659    0.0541   58.7287 H       1  ZINC001300804061    0.1000
     43 H43       -13.6905    1.2581   61.4881 H       1  ZINC001300804061    0.0700
     44 H44       -14.2477    1.2121   59.8015 H       1  ZINC001300804061    0.0800
     45 H45       -16.2111    1.1463   61.1844 H       1  ZINC001300804061    0.0800
     46 H46       -15.9861   -0.4936   60.5350 H       1  ZINC001300804061    0.0800
     47 H47       -15.0457    0.4421   63.2844 H       1  ZINC001300804061    0.0800
     48 H48       -16.5177   -0.5142   62.9760 H       1  ZINC001300804061    0.1100
     49 H49       -12.3360   -2.1288   61.6398 H       1  ZINC001300804061    0.1000
     50 H50       -12.4687   -0.5532   62.4621 H       1  ZINC001300804061    0.0900
     51 H51       -12.6291   -4.4417   58.3464 H       1  ZINC001300804061    0.0600
     52 H52       -13.5245   -3.0441   58.9890 H       1  ZINC001300804061    0.0800
     53 H53       -14.7877   -4.1693   57.1675 H       1  ZINC001300804061    0.0800
     54 H54       -14.3354   -2.5083   56.7123 H       1  ZINC001300804061    0.0800
     55 H55       -14.4885   -3.0430   54.2949 H       1  ZINC001300804061    0.0500
     56 H56       -13.6105   -4.4404   53.6282 H       1  ZINC001300804061    0.0600
     57 H57       -15.0015   -4.6964   54.7089 H       1  ZINC001300804061    0.0600
@<TRIPOS>BOND
     1     1     2    1
     2     1    31    1
     3     1    32    1
     4     1    33    1
     5     2     3    1
     6     3     4    1
     7     3    28    1
     8     3     5    1
     9     5     6    1
    10     5    34    1
    11     5    35    1
    12     6     7    1
    13     6    26    1
    14     7    17    1
    15     7     8    2
    16     8     9    1
    17     9    10    2
    18    10    11    1
    19    10    17    1
    20    11    16    1
    21    11    12    2
    22    12    13    1
    23    12    36    1
    24    13    14    2
    25    13    37    1
    26    14    15    1
    27    14    16    1
    28    15    38    1
    29    15    39    1
    30    15    40    1
    31    17    18    1
    32    18    19    1
    33    18    41    1
    34    18    42    1
    35    19    20    1
    36    19    25    1
    37    19    21    1
    38    21    22    1
    39    21    43    1
    40    21    44    1
    41    22    23    1
    42    22    45    1
    43    22    46    1
    44    23    24    1
    45    23    47    1
    46    23    48    1
    47    24    25    1
    48    25    49    1
    49    25    50    1
    50    26    27    1
    51    26    51    1
    52    26    52    1
    53    27    28    1
    54    27    53    1
    55    27    54    1
    56    28    29    1
    57    28    30    1
    58    30    55    1
    59    30    56    1
    60    30    57    1
@<TRIPOS>SUBSTRUCTURE
     1 ZINC001300804061        1 TEMP              0 ****  ****    0 ROOT


##########                                Name:    ZINC001456607258
##########                DOCK_Rotatable_Bonds:                   9
##########                         Heavy_Atoms:                  25
##########                    Molecular_Weight:             339.437
##########                DOCK_Rotatable_Bonds:                   9
##########                       Formal_Charge:          -0.0200009
##########                     HBond_Acceptors:                   5
##########                        HBond_Donors:                   2
##########                         Heavy_Atoms:                  25
##########                          Grid_Score:          -34.687859
##########                     Grid_vdw_energy:          -34.132122
##########                      Grid_es_energy:           -0.555735
##########           Internal_energy_repulsive:           11.683861

@<TRIPOS>MOLECULE
ZINC001456607258
 50 52 1 0 0
SMALL
USER_CHARGES


@<TRIPOS>ATOM
      1 C1         -8.9131   -3.8748   59.5418 C.3     1  ZINC001456607258   -0.1600
      2 C2         -9.7905   -2.8350   58.8418 C.3     1  ZINC001456607258   -0.1100
      3 C3         -9.6960   -1.5026   59.5879 C.3     1  ZINC001456607258   -0.1000
      4 H4         -8.6943   -1.3884   60.0023 H       1  ZINC001456607258    0.0900
      5 C5        -10.7228   -1.4791   60.7220 C.3     1  ZINC001456607258   -0.0700
      6 C6        -10.2645   -0.5251   61.7948 C.ar    1  ZINC001456607258   -0.0800
      7 C7        -10.9966    0.6162   62.0636 C.ar    1  ZINC001456607258   -0.1200
      8 C8        -10.5762    1.4912   63.0477 C.ar    1  ZINC001456607258   -0.1200
      9 C9         -9.4238    1.2248   63.7632 C.ar    1  ZINC001456607258   -0.1200
     10 C10        -8.6922    0.0831   63.4950 C.ar    1  ZINC001456607258   -0.1200
     11 C11        -9.1150   -0.7942   62.5140 C.ar    1  ZINC001456607258   -0.1200
     12 C12        -9.9765   -0.3711   58.6328 C.2     1  ZINC001456607258    0.5200
     13 O13       -10.8378   -0.4906   57.7874 O.2     1  ZINC001456607258   -0.5300
     14 N14        -9.2703    0.7737   58.7183 N.am    1  ZINC001456607258   -0.7300
     15 C15        -9.5430    1.8736   57.7899 C.3     1  ZINC001456607258    0.1300
     16 C16        -8.5083    1.8582   56.6630 C.3     1  ZINC001456607258   -0.1400
     17 C17        -8.9065    0.9734   55.4678 C.3     1  ZINC001456607258    0.1100
     18 N18        -8.3960    2.0663   54.6174 N.am    1  ZINC001456607258   -0.6500
     19 C19        -7.9113    2.1383   53.3618 C.2     1  ZINC001456607258    0.6100
     20 O20        -7.5525    3.2086   52.9090 O.2     1  ZINC001456607258   -0.5400
     21 C21        -7.8160    0.9212   52.5384 C.2     1  ZINC001456607258   -0.2300
     22 C22        -6.9847    0.7127   51.4725 C.2     1  ZINC001456607258    0.0400
     23 N23        -7.2069   -0.5270   50.9963 N.pl3   1  ZINC001456607258   -0.5500
     24 C24        -8.1752   -1.1492   51.7294 C.2     1  ZINC001456607258   -0.0200
     25 C25        -8.5890   -0.3150   52.6997 C.2     1  ZINC001456607258   -0.1400
     26 C26        -8.6293    3.0483   55.6940 C.3     1  ZINC001456607258    0.1100
     27 H27        -9.0508   -4.8459   59.0661 H       1  ZINC001456607258    0.0600
     28 H28        -7.8670   -3.5780   59.4657 H       1  ZINC001456607258    0.0600
     29 H29        -9.1965   -3.9415   60.5922 H       1  ZINC001456607258    0.0600
     30 H30        -9.4477   -2.7019   57.8157 H       1  ZINC001456607258    0.0800
     31 H31       -10.8256   -3.1765   58.8377 H       1  ZINC001456607258    0.0700
     32 H32       -11.6868   -1.1520   60.3325 H       1  ZINC001456607258    0.0800
     33 H33       -10.8216   -2.4795   61.1435 H       1  ZINC001456607258    0.0900
     34 H34       -11.8970    0.8244   61.5046 H       1  ZINC001456607258    0.1200
     35 H35       -11.1479    2.3833   63.2572 H       1  ZINC001456607258    0.1200
     36 H36        -9.0950    1.9089   64.5315 H       1  ZINC001456607258    0.1200
     37 H37        -7.7917   -0.1249   64.0538 H       1  ZINC001456607258    0.1200
     38 H38        -8.5433   -1.6863   62.3044 H       1  ZINC001456607258    0.1200
     39 H39        -8.5815    0.8692   59.3945 H       1  ZINC001456607258    0.4000
     40 H40       -10.5411    1.7542   57.3682 H       1  ZINC001456607258    0.0700
     41 H41        -9.4851    2.8223   58.3234 H       1  ZINC001456607258    0.0800
     42 H42        -7.4932    1.6849   57.0205 H       1  ZINC001456607258    0.1100
     43 H43        -8.3297    0.0517   55.3920 H       1  ZINC001456607258    0.0800
     44 H44        -9.9810    0.8128   55.3788 H       1  ZINC001456607258    0.0900
     45 H45        -6.2714    1.4221   51.0795 H       1  ZINC001456607258    0.1700
     46 H46        -6.7451   -0.9213   50.2399 H       1  ZINC001456607258    0.4200
     47 H47        -8.5449   -2.1498   51.5611 H       1  ZINC001456607258    0.1700
     48 H48        -9.3455   -0.5131   53.4446 H       1  ZINC001456607258    0.1500
     49 H49        -9.6224    3.4972   55.6715 H       1  ZINC001456607258    0.0900
     50 H50        -7.8312    3.7832   55.7988 H       1  ZINC001456607258    0.0900
@<TRIPOS>BOND
     1     1     2    1
     2     1    27    1
     3     1    28    1
     4     1    29    1
     5     2     3    1
     6     2    30    1
     7     2    31    1
     8     3     4    1
     9     3     5    1
    10     3    12    1
    11     5     6    1
    12     5    32    1
    13     5    33    1
    14     6    11   ar
    15     6     7   ar
    16     7     8   ar
    17     7    34    1
    18     8     9   ar
    19     8    35    1
    20     9    10   ar
    21     9    36    1
    22    10    11   ar
    23    10    37    1
    24    11    38    1
    25    12    13    2
    26    12    14   am
    27    14    15    1
    28    14    39    1
    29    15    16    1
    30    15    40    1
    31    15    41    1
    32    16    26    1
    33    16    17    1
    34    16    42    1
    35    17    18    1
    36    17    43    1
    37    17    44    1
    38    18    19   am
    39    18    26    1
    40    19    20    2
    41    19    21    1
    42    21    25    1
    43    21    22    2
    44    22    23    1
    45    22    45    1
    46    23    24    1
    47    23    46    1
    48    24    25    2
    49    24    47    1
    50    25    48    1
    51    26    49    1
    52    26    50    1
@<TRIPOS>SUBSTRUCTURE
     1 ZINC001456607258        1 TEMP              0 ****  ****    0 ROOT


##########                                Name:    ZINC001310073555
##########                DOCK_Rotatable_Bonds:                  12
##########                         Heavy_Atoms:                  27
##########                    Molecular_Weight:             380.484
##########                DOCK_Rotatable_Bonds:                  12
##########                       Formal_Charge:          0.00999888
##########                     HBond_Acceptors:                   7
##########                        HBond_Donors:                   2
##########                         Heavy_Atoms:                  27
##########                          Grid_Score:          -34.682869
##########                     Grid_vdw_energy:          -34.171028
##########                      Grid_es_energy:           -0.511842
##########           Internal_energy_repulsive:           41.461895

@<TRIPOS>MOLECULE
ZINC001310073555
 59 59 1 0 0
SMALL
USER_CHARGES


@<TRIPOS>ATOM
      1 C1        -11.8858    2.7648   53.5038 C.3     1  ZINC001310073555   -0.1600
      2 C2        -11.3011    1.8444   54.5771 C.3     1  ZINC001310073555   -0.1100
      3 C3         -9.9033    1.3897   54.1528 C.3     1  ZINC001310073555   -0.0600
      4 C4         -9.2378    2.4915   53.3257 C.3     1  ZINC001310073555   -0.1100
      5 C5         -7.7710    2.1308   53.0821 C.3     1  ZINC001310073555   -0.1600
      6 C6         -9.0596    1.1059   55.3971 C.3     1  ZINC001310073555    0.1600
      7 N7         -9.8282    0.2781   56.3298 N.am    1  ZINC001310073555   -0.7400
      8 C8         -9.5411    0.3024   57.6465 C.2     1  ZINC001310073555    0.7100
      9 O9         -8.6450    1.0126   58.0603 O.2     1  ZINC001310073555   -0.5700
     10 N10       -10.2472   -0.4604   58.5044 N.am    1  ZINC001310073555   -0.6700
     11 C11        -9.9482   -0.4351   59.8757 C.ar    1  ZINC001310073555    0.1000
     12 C12       -10.4715    0.5643   60.6815 C.ar    1  ZINC001310073555   -0.0400
     13 C13       -10.1771    0.5894   62.0319 C.ar    1  ZINC001310073555   -0.2200
     14 C14        -9.3586   -0.3846   62.5837 C.ar    1  ZINC001310073555    0.1500
     15 O15        -9.0710   -0.3572   63.9123 O.3     1  ZINC001310073555   -0.3200
     16 C16        -8.5288    0.8577   64.4338 C.3     1  ZINC001310073555    0.0300
     17 C17        -8.8335   -1.3872   61.7815 C.ar    1  ZINC001310073555   -0.2300
     18 C18        -9.1302   -1.4174   60.4293 C.ar    1  ZINC001310073555    0.1400
     19 O19        -8.6164   -2.3993   59.6412 O.3     1  ZINC001310073555   -0.3100
     20 C20        -9.0907   -3.7281   59.8681 C.3     1  ZINC001310073555    0.0300
     21 C21       -10.0130    0.1361   53.3236 C.2     1  ZINC001310073555    0.4800
     22 O22        -9.1172   -0.6747   53.3329 O.2     1  ZINC001310073555   -0.5000
     23 O23       -11.1059   -0.0798   52.5748 O.3     1  ZINC001310073555   -0.3400
     24 C24       -11.7293   -1.3869   52.6799 C.3     1  ZINC001310073555    0.1200
     25 C25       -10.9169   -2.4054   51.8777 C.3     1  ZINC001310073555   -0.1800
     26 C26       -11.7746   -1.8137   54.1485 C.3     1  ZINC001310073555   -0.1400
     27 C27       -13.1532   -1.3190   52.1244 C.3     1  ZINC001310073555   -0.1800
     28 H28       -12.8817    3.0888   53.8062 H       1  ZINC001310073555    0.0600
     29 H29       -11.2419    3.6358   53.3819 H       1  ZINC001310073555    0.0500
     30 H30       -11.9504    2.2256   52.5587 H       1  ZINC001310073555    0.0600
     31 H31       -11.2366    2.3836   55.5223 H       1  ZINC001310073555    0.0800
     32 H32       -11.9452    0.9735   54.6990 H       1  ZINC001310073555    0.0800
     33 H33        -9.7518    2.5888   52.3694 H       1  ZINC001310073555    0.0800
     34 H34        -9.2946    3.4363   53.8665 H       1  ZINC001310073555    0.0800
     35 H35        -7.2571    2.0336   54.0383 H       1  ZINC001310073555    0.0600
     36 H36        -7.7141    1.1861   52.5413 H       1  ZINC001310073555    0.0500
     37 H37        -7.2969    2.9158   52.4929 H       1  ZINC001310073555    0.0600
     38 H38        -8.1508    0.5786   55.1074 H       1  ZINC001310073555    0.0800
     39 H39        -8.7955    2.0471   55.8794 H       1  ZINC001310073555    0.0800
     40 H40       -10.5438   -0.2875   55.9999 H       1  ZINC001310073555    0.4000
     41 H41       -10.9619   -1.0270   58.1743 H       1  ZINC001310073555    0.4100
     42 H42       -11.1091    1.3240   60.2539 H       1  ZINC001310073555    0.1500
     43 H43       -10.5849    1.3691   62.6582 H       1  ZINC001310073555    0.1300
     44 H44        -7.5910    1.0843   63.9265 H       1  ZINC001310073555    0.0600
     45 H45        -9.2360    1.6708   64.2705 H       1  ZINC001310073555    0.0600
     46 H46        -8.3457    0.7446   65.5023 H       1  ZINC001310073555    0.1000
     47 H47        -8.1962   -2.1453   62.2120 H       1  ZINC001310073555    0.1400
     48 H48        -8.6017   -4.4118   59.1744 H       1  ZINC001310073555    0.1000
     49 H49        -8.8633   -4.0251   60.8919 H       1  ZINC001310073555    0.0600
     50 H50       -10.1689   -3.7608   59.7114 H       1  ZINC001310073555    0.0600
     51 H51        -9.9024   -2.4538   52.2734 H       1  ZINC001310073555    0.0600
     52 H52       -11.3848   -3.3867   51.9566 H       1  ZINC001310073555    0.0700
     53 H53       -10.8847   -2.1014   50.8314 H       1  ZINC001310073555    0.0800
     54 H54       -12.3533   -1.0881   54.7200 H       1  ZINC001310073555    0.0700
     55 H55       -12.2425   -2.7950   54.2274 H       1  ZINC001310073555    0.0800
     56 H56       -10.7601   -1.8621   54.5443 H       1  ZINC001310073555    0.0700
     57 H57       -13.1210   -1.0150   51.0781 H       1  ZINC001310073555    0.0800
     58 H58       -13.6212   -2.3002   52.2034 H       1  ZINC001310073555    0.0700
     59 H59       -13.7320   -0.5934   52.6960 H       1  ZINC001310073555    0.0600
@<TRIPOS>BOND
     1     1     2    1
     2     1    28    1
     3     1    29    1
     4     1    30    1
     5     2     3    1
     6     2    31    1
     7     2    32    1
     8     3     4    1
     9     3     6    1
    10     3    21    1
    11     4     5    1
    12     4    33    1
    13     4    34    1
    14     5    35    1
    15     5    36    1
    16     5    37    1
    17     6     7    1
    18     6    38    1
    19     6    39    1
    20     7     8   am
    21     7    40    1
    22     8     9    2
    23     8    10   am
    24    10    11    1
    25    10    41    1
    26    11    18   ar
    27    11    12   ar
    28    12    13   ar
    29    12    42    1
    30    13    14   ar
    31    13    43    1
    32    14    15    1
    33    14    17   ar
    34    15    16    1
    35    16    44    1
    36    16    45    1
    37    16    46    1
    38    17    18   ar
    39    17    47    1
    40    18    19    1
    41    19    20    1
    42    20    48    1
    43    20    49    1
    44    20    50    1
    45    21    22    2
    46    21    23    1
    47    23    24    1
    48    24    25    1
    49    24    26    1
    50    24    27    1
    51    25    51    1
    52    25    52    1
    53    25    53    1
    54    26    54    1
    55    26    55    1
    56    26    56    1
    57    27    57    1
    58    27    58    1
    59    27    59    1
@<TRIPOS>SUBSTRUCTURE
     1 ZINC001310073555        1 TEMP              0 ****  ****    0 ROOT


##########                                Name:    ZINC001011267435
##########                DOCK_Rotatable_Bonds:                   7
##########                         Heavy_Atoms:                  24
##########                    Molecular_Weight:             331.458
##########                DOCK_Rotatable_Bonds:                   7
##########                       Formal_Charge:        -4.47035e-08
##########                     HBond_Acceptors:                   5
##########                        HBond_Donors:                   0
##########                         Heavy_Atoms:                  24
##########                          Grid_Score:          -34.665012
##########                     Grid_vdw_energy:          -34.774052
##########                      Grid_es_energy:            0.109039
##########           Internal_energy_repulsive:           40.869774

@<TRIPOS>MOLECULE
ZINC001011267435
 53 54 1 0 0
SMALL
USER_CHARGES


@<TRIPOS>ATOM
      1 C1        -10.9764   -1.5140   51.9156 C.3     1  ZINC001011267435   -0.1500
      2 C2        -11.1167   -2.1987   53.2766 C.3     1  ZINC001011267435   -0.1200
      3 C3        -12.1305   -3.3397   53.1714 C.3     1  ZINC001011267435   -0.0700
      4 C4        -12.4332   -3.8713   54.5487 C.ar    1  ZINC001011267435    0.1300
      5 C5        -11.4307   -3.9140   55.4979 C.ar    1  ZINC001011267435   -0.1200
      6 C6        -11.7243   -4.4095   56.7723 C.ar    1  ZINC001011267435   -0.0800
      7 C7        -10.6818   -4.4740   57.8228 C.2     1  ZINC001011267435    0.5600
      8 O8        -10.1372   -5.5308   58.0744 O.2     1  ZINC001011267435   -0.5200
      9 N9        -10.3371   -3.3605   58.4995 N.am    1  ZINC001011267435   -0.6100
     10 C10       -10.9914   -2.0768   58.2101 C.3     1  ZINC001011267435    0.0700
     11 C11       -11.5796   -1.5217   59.5133 C.3     1  ZINC001011267435    0.1000
     12 N12       -10.5431   -1.5696   60.5541 N.am    1  ZINC001011267435   -0.6200
     13 C13       -10.1991   -0.4563   61.2314 C.2     1  ZINC001011267435    0.5300
     14 O14        -9.3421   -0.5083   62.0881 O.2     1  ZINC001011267435   -0.5300
     15 C15       -10.8790    0.8530   60.9242 C.3     1  ZINC001011267435   -0.1100
     16 H16       -11.9375    0.6767   60.7334 H       1  ZINC001011267435    0.0900
     17 C17       -10.2360    1.4837   59.6874 C.3     1  ZINC001011267435   -0.1500
     18 C18       -10.7264    1.7991   62.1168 C.3     1  ZINC001011267435   -0.0800
     19 C19       -11.3610    3.1500   61.7807 C.3     1  ZINC001011267435   -0.1500
     20 C20       -11.4249    1.1972   63.3378 C.3     1  ZINC001011267435   -0.1500
     21 C21        -9.8887   -2.8534   60.8435 C.3     1  ZINC001011267435    0.0900
     22 C22        -9.3046   -3.4096   59.5442 C.3     1  ZINC001011267435    0.1000
     23 C23       -13.0291   -4.8417   57.0275 C.ar    1  ZINC001011267435   -0.1600
     24 C24       -13.9701   -4.7631   56.0188 C.ar    1  ZINC001011267435    0.1100
     25 N25       -13.6524   -4.2843   54.8328 N.ar    1  ZINC001011267435   -0.4600
     26 H26       -10.6322   -2.2390   51.1780 H       1  ZINC001011267435    0.0600
     27 H27       -11.9429   -1.1142   51.6087 H       1  ZINC001011267435    0.0500
     28 H28       -10.2541   -0.7011   51.9906 H       1  ZINC001011267435    0.0600
     29 H29       -10.1503   -2.5985   53.5836 H       1  ZINC001011267435    0.0700
     30 H30       -11.4609   -1.4737   54.0143 H       1  ZINC001011267435    0.0600
     31 H31       -13.0484   -2.9693   52.7151 H       1  ZINC001011267435    0.0800
     32 H32       -11.7158   -4.1386   52.5567 H       1  ZINC001011267435    0.0900
     33 H33       -10.4351   -3.5702   55.2595 H       1  ZINC001011267435    0.1400
     34 H34       -10.2594   -1.3747   57.8109 H       1  ZINC001011267435    0.0800
     35 H35       -11.7900   -2.2288   57.4840 H       1  ZINC001011267435    0.1100
     36 H36       -11.8976   -0.4903   59.3610 H       1  ZINC001011267435    0.1100
     37 H37       -12.4320   -2.1289   59.8178 H       1  ZINC001011267435    0.0700
     38 H38       -10.6708    2.4680   59.5138 H       1  ZINC001011267435    0.0800
     39 H39        -9.1624    1.5837   59.8470 H       1  ZINC001011267435    0.0600
     40 H40       -10.4167    0.8487   58.8201 H       1  ZINC001011267435    0.0600
     41 H41        -9.6679    1.9393   62.3362 H       1  ZINC001011267435    0.0800
     42 H42       -11.2523    3.8241   62.6304 H       1  ZINC001011267435    0.0600
     43 H43       -10.8634    3.5788   60.9108 H       1  ZINC001011267435    0.0600
     44 H44       -12.4194    3.0097   61.5613 H       1  ZINC001011267435    0.0600
     45 H45       -10.9728    0.2348   63.5773 H       1  ZINC001011267435    0.0600
     46 H46       -11.3162    1.8713   64.1875 H       1  ZINC001011267435    0.0600
     47 H47       -12.4834    1.0569   63.1184 H       1  ZINC001011267435    0.0500
     48 H48        -9.0902   -2.7014   61.5696 H       1  ZINC001011267435    0.1000
     49 H49       -10.6209   -3.5553   61.2427 H       1  ZINC001011267435    0.0800
     50 H50        -8.9869   -4.4408   59.6979 H       1  ZINC001011267435    0.1100
     51 H51        -8.4522   -2.8034   59.2374 H       1  ZINC001011267435    0.0800
     52 H52       -13.2973   -5.2315   57.9984 H       1  ZINC001011267435    0.1500
     53 H53       -14.9807   -5.0949   56.2062 H       1  ZINC001011267435    0.1700
@<TRIPOS>BOND
     1     1     2    1
     2     1    26    1
     3     1    27    1
     4     1    28    1
     5     2     3    1
     6     2    29    1
     7     2    30    1
     8     3     4    1
     9     3    31    1
    10     3    32    1
    11     4    25   ar
    12     4     5   ar
    13     5     6   ar
    14     5    33    1
    15     6     7    1
    16     6    23   ar
    17     7     8    2
    18     7     9   am
    19     9    22    1
    20     9    10    1
    21    10    11    1
    22    10    34    1
    23    10    35    1
    24    11    12    1
    25    11    36    1
    26    11    37    1
    27    12    13   am
    28    12    21    1
    29    13    14    2
    30    13    15    1
    31    15    16    1
    32    15    17    1
    33    15    18    1
    34    17    38    1
    35    17    39    1
    36    17    40    1
    37    18    19    1
    38    18    20    1
    39    18    41    1
    40    19    42    1
    41    19    43    1
    42    19    44    1
    43    20    45    1
    44    20    46    1
    45    20    47    1
    46    21    22    1
    47    21    48    1
    48    21    49    1
    49    22    50    1
    50    22    51    1
    51    23    24   ar
    52    23    52    1
    53    24    25   ar
    54    24    53    1
@<TRIPOS>SUBSTRUCTURE
     1 ZINC001011267435        1 TEMP              0 ****  ****    0 ROOT


##########                                Name:    ZINC000892249927
##########                DOCK_Rotatable_Bonds:                   8
##########                         Heavy_Atoms:                  27
##########                    Molecular_Weight:             364.487
##########                DOCK_Rotatable_Bonds:                   8
##########                       Formal_Charge:          -0.0300015
##########                     HBond_Acceptors:                   4
##########                        HBond_Donors:                   1
##########                         Heavy_Atoms:                  27
##########                          Grid_Score:          -34.655098
##########                     Grid_vdw_energy:          -34.185299
##########                      Grid_es_energy:           -0.469798
##########           Internal_energy_repulsive:           11.733733

@<TRIPOS>MOLECULE
ZINC000892249927
 55 58 1 0 0
SMALL
USER_CHARGES


@<TRIPOS>ATOM
      1 O1        -11.6449    1.0971   59.3155 O.2     1  ZINC000892249927   -0.5300
      2 C2        -10.4581    0.8988   59.1639 C.2     1  ZINC000892249927    0.5100
      3 C3         -9.6009    1.9378   58.4880 C.3     1  ZINC000892249927   -0.1400
      4 C4         -9.5144    1.6326   56.9912 C.3     1  ZINC000892249927   -0.1000
      5 C5         -9.0165    2.8724   56.2458 C.3     1  ZINC000892249927   -0.0800
      6 C6         -8.4926    2.4679   54.8919 C.ar    1  ZINC000892249927   -0.0900
      7 C7         -7.4302    3.1507   54.3297 C.ar    1  ZINC000892249927   -0.1100
      8 C8         -6.9497    2.7796   53.0877 C.ar    1  ZINC000892249927   -0.1100
      9 C9         -7.5311    1.7255   52.4083 C.ar    1  ZINC000892249927   -0.0500
     10 C10        -7.0076    1.3213   51.0542 C.3     1  ZINC000892249927   -0.1200
     11 C11        -5.5730    0.7946   50.9800 C.3     1  ZINC000892249927   -0.1800
     12 C12        -6.7510   -0.1674   50.8117 C.3     1  ZINC000892249927   -0.1700
     13 C13        -8.5925    1.0418   52.9713 C.ar    1  ZINC000892249927   -0.1200
     14 C14        -9.0706    1.4104   54.2149 C.ar    1  ZINC000892249927   -0.1100
     15 N15        -9.9047   -0.2482   59.6049 N.am    1  ZINC000892249927   -0.7300
     16 C16       -10.7380   -1.2582   60.2619 C.3     1  ZINC000892249927    0.1400
     17 H17       -11.3695   -0.7794   61.0102 H       1  ZINC000892249927    0.1000
     18 C18        -9.8423   -2.3005   60.9384 C.3     1  ZINC000892249927   -0.1700
     19 C19        -9.0147   -3.0208   59.8707 C.3     1  ZINC000892249927    0.0600
     20 O20        -9.8914   -3.6213   58.9152 O.3     1  ZINC000892249927   -0.3700
     21 C21       -10.7199   -2.6894   58.2171 C.3     1  ZINC000892249927    0.1400
     22 H22       -10.0935   -1.9676   57.6931 H       1  ZINC000892249927    0.0700
     23 C23       -11.5775   -3.4271   57.2214 C.ar    1  ZINC000892249927   -0.1400
     24 C24       -11.9373   -4.7467   57.4466 C.ar    1  ZINC000892249927   -0.0700
     25 C25       -12.7279   -5.3855   56.5033 C.ar    1  ZINC000892249927   -0.1700
     26 C26       -13.1281   -4.6904   55.3781 C.ar    1  ZINC000892249927    0.1000
     27 N27       -12.7666   -3.4350   55.1966 N.ar    1  ZINC000892249927   -0.4900
     28 C28       -12.0201   -2.7946   56.0747 C.ar    1  ZINC000892249927    0.1300
     29 C29       -11.6176   -1.9543   59.2187 C.3     1  ZINC000892249927   -0.1500
     30 H30       -10.0428    2.9237   58.6328 H       1  ZINC000892249927    0.0900
     31 H31        -8.6005    1.9210   58.9206 H       1  ZINC000892249927    0.0900
     32 H32        -8.8210    0.8075   56.8281 H       1  ZINC000892249927    0.0700
     33 H33       -10.5011    1.3567   56.6191 H       1  ZINC000892249927    0.0700
     34 H34        -9.8391    3.5765   56.1215 H       1  ZINC000892249927    0.0700
     35 H35        -8.2177    3.3441   56.8182 H       1  ZINC000892249927    0.0700
     36 H36        -6.9759    3.9743   54.8604 H       1  ZINC000892249927    0.1200
     37 H37        -6.1201    3.3135   52.6481 H       1  ZINC000892249927    0.1200
     38 H38        -7.3710    1.9129   50.2140 H       1  ZINC000892249927    0.1100
     39 H39        -4.9924    1.0396   50.0907 H       1  ZINC000892249927    0.1000
     40 H40        -5.0079    0.7403   51.9105 H       1  ZINC000892249927    0.1000
     41 H41        -6.9607   -0.8544   51.6314 H       1  ZINC000892249927    0.1000
     42 H42        -6.9450   -0.5551   49.8116 H       1  ZINC000892249927    0.1000
     43 H43        -9.0466    0.2180   52.4407 H       1  ZINC000892249927    0.1200
     44 H44        -9.8999    0.8762   54.6546 H       1  ZINC000892249927    0.1200
     45 H45        -8.9547   -0.4051   59.4871 H       1  ZINC000892249927    0.4000
     46 H46        -9.1750   -1.8047   61.6434 H       1  ZINC000892249927    0.0800
     47 H47       -10.4616   -3.0240   61.4686 H       1  ZINC000892249927    0.0800
     48 H48        -8.3660   -2.3033   59.3682 H       1  ZINC000892249927    0.0500
     49 H49        -8.4067   -3.7931   60.3418 H       1  ZINC000892249927    0.1000
     50 H50       -11.6092   -5.2652   58.3355 H       1  ZINC000892249927    0.1300
     51 H51       -13.0269   -6.4135   56.6462 H       1  ZINC000892249927    0.1400
     52 H52       -13.7437   -5.1808   54.6386 H       1  ZINC000892249927    0.1600
     53 H53       -11.7440   -1.7666   55.8917 H       1  ZINC000892249927    0.1600
     54 H54       -12.2732   -2.6704   59.7143 H       1  ZINC000892249927    0.0900
     55 H55       -12.2186   -1.2123   58.6929 H       1  ZINC000892249927    0.0800
@<TRIPOS>BOND
     1     1     2    2
     2     2     3    1
     3     2    15   am
     4     3     4    1
     5     3    30    1
     6     3    31    1
     7     4     5    1
     8     4    32    1
     9     4    33    1
    10     5     6    1
    11     5    34    1
    12     5    35    1
    13     6    14   ar
    14     6     7   ar
    15     7     8   ar
    16     7    36    1
    17     8     9   ar
    18     8    37    1
    19     9    10    1
    20     9    13   ar
    21    10    12    1
    22    10    11    1
    23    10    38    1
    24    11    12    1
    25    11    39    1
    26    11    40    1
    27    12    41    1
    28    12    42    1
    29    13    14   ar
    30    13    43    1
    31    14    44    1
    32    15    16    1
    33    15    45    1
    34    16    17    1
    35    16    29    1
    36    16    18    1
    37    18    19    1
    38    18    46    1
    39    18    47    1
    40    19    20    1
    41    19    48    1
    42    19    49    1
    43    20    21    1
    44    21    22    1
    45    21    23    1
    46    21    29    1
    47    23    28   ar
    48    23    24   ar
    49    24    25   ar
    50    24    50    1
    51    25    26   ar
    52    25    51    1
    53    26    27   ar
    54    26    52    1
    55    27    28   ar
    56    28    53    1
    57    29    54    1
    58    29    55    1
@<TRIPOS>SUBSTRUCTURE
     1 ZINC000892249927        1 TEMP              0 ****  ****    0 ROOT


##########                                Name:    ZINC000503413572
##########                DOCK_Rotatable_Bonds:                   7
##########                         Heavy_Atoms:                  26
##########                    Molecular_Weight:             355.375
##########                DOCK_Rotatable_Bonds:                   7
##########                       Formal_Charge:        -1.71363e-07
##########                     HBond_Acceptors:                   9
##########                        HBond_Donors:                   1
##########                         Heavy_Atoms:                  26
##########                          Grid_Score:          -34.642883
##########                     Grid_vdw_energy:          -33.526775
##########                      Grid_es_energy:           -1.116108
##########           Internal_energy_repulsive:            7.570403

@<TRIPOS>MOLECULE
ZINC000503413572
 44 47 1 0 0
SMALL
USER_CHARGES


@<TRIPOS>ATOM
      1 C1        -10.5324    1.8749   59.8765 C.3     1  ZINC000503413572   -0.1200
      2 C2         -9.9494    0.7062   60.6282 C.ar    1  ZINC000503413572   -0.0200
      3 C3         -9.8282    0.7599   62.0026 C.ar    1  ZINC000503413572   -0.1400
      4 C4         -9.2927   -0.3142   62.6940 C.ar    1  ZINC000503413572    0.1300
      5 F5         -9.1753   -0.2601   64.0388 F       1  ZINC000503413572   -0.1300
      6 C6         -8.8781   -1.4436   62.0086 C.ar    1  ZINC000503413572   -0.1400
      7 C7         -8.9978   -1.5009   60.6338 C.ar    1  ZINC000503413572   -0.0700
      8 C8         -9.5389   -0.4276   59.9397 C.ar    1  ZINC000503413572    0.1000
      9 N9         -9.6617   -0.4842   58.5435 N.pl3   1  ZINC000503413572   -0.3100
     10 C10       -10.6477   -1.0880   57.8455 C.2     1  ZINC000503413572    0.1100
     11 C11       -10.3696   -0.8952   56.5218 C.2     1  ZINC000503413572   -0.1000
     12 C12       -11.1803   -1.3834   55.3903 C.2     1  ZINC000503413572    0.6100
     13 O13       -10.8668   -1.0992   54.2505 O.2     1  ZINC000503413572   -0.5300
     14 N14       -12.2686   -2.1446   55.6201 N.am    1  ZINC000503413572   -0.7200
     15 C15       -13.0729   -2.6310   54.4963 C.3     1  ZINC000503413572    0.1100
     16 C16       -14.4705   -3.0053   54.9936 C.3     1  ZINC000503413572    0.1000
     17 N17       -14.3711   -4.1280   55.9296 N.pl3   1  ZINC000503413572   -0.4700
     18 C18       -14.1671   -5.4313   55.6204 C.2     1  ZINC000503413572    0.1500
     19 N19       -14.1443   -6.0976   56.7425 N.2     1  ZINC000503413572   -0.2900
     20 N20       -14.3212   -5.2912   57.7285 N.2     1  ZINC000503413572   -0.2900
     21 C21       -14.4590   -4.0730   57.2806 C.2     1  ZINC000503413572    0.2100
     22 C22       -14.6843   -2.8361   58.1114 C.3     1  ZINC000503413572   -0.1000
     23 C23       -16.1279   -2.3664   58.3020 C.3     1  ZINC000503413572   -0.1500
     24 C24       -15.3731   -3.0109   59.4663 C.3     1  ZINC000503413572   -0.1600
     25 N25        -9.2323   -0.1854   56.4248 N.2     1  ZINC000503413572   -0.2000
     26 N26        -8.7877    0.0803   57.6036 N.2     1  ZINC000503413572   -0.0400
     27 H27       -11.5976    1.7086   59.7156 H       1  ZINC000503413572    0.0900
     28 H28       -10.3906    2.7871   60.4561 H       1  ZINC000503413572    0.0800
     29 H29       -10.0309    1.9745   58.9138 H       1  ZINC000503413572    0.0700
     30 H30       -10.1507    1.6402   62.5388 H       1  ZINC000503413572    0.1500
     31 H31        -8.4605   -2.2801   62.5493 H       1  ZINC000503413572    0.1500
     32 H32        -8.6739   -2.3818   60.0995 H       1  ZINC000503413572    0.1500
     33 H33       -11.4931   -1.6211   58.2549 H       1  ZINC000503413572    0.2100
     34 H34       -12.5194   -2.3704   56.5296 H       1  ZINC000503413572    0.4100
     35 H35       -13.1532   -1.8486   53.7415 H       1  ZINC000503413572    0.0800
     36 H36       -12.5951   -3.5085   54.0605 H       1  ZINC000503413572    0.0800
     37 H37       -14.9177   -2.1493   55.4991 H       1  ZINC000503413572    0.1100
     38 H38       -15.0928   -3.2928   54.1462 H       1  ZINC000503413572    0.1100
     39 H39       -14.0463   -5.8427   54.6292 H       1  ZINC000503413572    0.2200
     40 H40       -13.9118   -2.0710   58.0345 H       1  ZINC000503413572    0.1200
     41 H41       -16.3053   -1.2920   58.3505 H       1  ZINC000503413572    0.1100
     42 H42       -16.9147   -2.9520   57.8264 H       1  ZINC000503413572    0.1100
     43 H43       -15.6633   -4.0207   59.7568 H       1  ZINC000503413572    0.1000
     44 H44       -15.0539   -2.3607   60.2808 H       1  ZINC000503413572    0.1100
@<TRIPOS>BOND
     1     1     2    1
     2     1    27    1
     3     1    28    1
     4     1    29    1
     5     2     8   ar
     6     2     3   ar
     7     3     4   ar
     8     3    30    1
     9     4     5    1
    10     4     6   ar
    11     6     7   ar
    12     6    31    1
    13     7     8   ar
    14     7    32    1
    15     8     9    1
    16     9    26    1
    17     9    10    1
    18    10    11    2
    19    10    33    1
    20    11    12    1
    21    11    25    1
    22    12    13    2
    23    12    14   am
    24    14    15    1
    25    14    34    1
    26    15    16    1
    27    15    35    1
    28    15    36    1
    29    16    17    1
    30    16    37    1
    31    16    38    1
    32    17    21    1
    33    17    18    1
    34    18    19    2
    35    18    39    1
    36    19    20    1
    37    20    21    2
    38    21    22    1
    39    22    24    1
    40    22    23    1
    41    22    40    1
    42    23    24    1
    43    23    41    1
    44    23    42    1
    45    24    43    1
    46    24    44    1
    47    25    26    2
@<TRIPOS>SUBSTRUCTURE
     1 ZINC000503413572        1 TEMP              0 ****  ****    0 ROOT


##########                                Name:    ZINC000885154703
##########                DOCK_Rotatable_Bonds:                   5
##########                         Heavy_Atoms:                  24
##########                    Molecular_Weight:             396.259
##########                DOCK_Rotatable_Bonds:                   5
##########                       Formal_Charge:          -0.0099998
##########                     HBond_Acceptors:                   6
##########                        HBond_Donors:                   1
##########                         Heavy_Atoms:                  24
##########                          Grid_Score:          -34.635849
##########                     Grid_vdw_energy:          -33.426357
##########                      Grid_es_energy:           -1.209493
##########           Internal_energy_repulsive:            9.415928

@<TRIPOS>MOLECULE
ZINC000885154703
 43 45 1 0 0
SMALL
USER_CHARGES


@<TRIPOS>ATOM
      1 C1          1.2688   -0.6050   41.0006 C.3     1  ZINC000885154703   -0.1500
      2 C2         -0.1744   -1.0758   41.1920 C.3     1  ZINC000885154703   -0.0300
      3 C3         -0.7088   -0.5402   42.4953 C.2     1  ZINC000885154703    0.1700
      4 N4         -1.6204   -1.0931   43.2379 N.2     1  ZINC000885154703   -0.3800
      5 O5         -1.8290   -0.4147   44.2217 O.3     1  ZINC000885154703    0.0800
      6 C6         -1.0463    0.6683   44.1993 C.2     1  ZINC000885154703    0.1800
      7 C7         -0.9974    1.7617   45.2350 C.3     1  ZINC000885154703    0.0000
      8 H8         -0.9553    2.7358   44.7476 H       1  ZINC000885154703    0.1300
      9 C9          0.2338    1.5728   46.1451 C.3     1  ZINC000885154703   -0.1200
     10 C10        -0.2641    1.9942   47.5500 C.3     1  ZINC000885154703   -0.1300
     11 C11        -1.7118    1.4446   47.5787 C.3     1  ZINC000885154703    0.1400
     12 H12        -1.7112    0.3803   47.8142 H       1  ZINC000885154703    0.1000
     13 N13        -2.5215    2.1832   48.5509 N.am    1  ZINC000885154703   -0.7100
     14 C14        -2.2678    2.0627   49.8690 C.2     1  ZINC000885154703    0.5700
     15 O15        -1.3681    1.3400   50.2514 O.2     1  ZINC000885154703   -0.5100
     16 C16        -3.0830    2.8087   50.8491 C.ar    1  ZINC000885154703   -0.1600
     17 C17        -2.5688    3.9547   51.4631 C.ar    1  ZINC000885154703    0.1500
     18 F18        -1.3237    4.3840   51.1620 F       1  ZINC000885154703   -0.1200
     19 C19        -3.3389    4.6479   52.3795 C.ar    1  ZINC000885154703   -0.1500
     20 C20        -4.6125    4.2093   52.6880 C.ar    1  ZINC000885154703   -0.0400
     21 C21        -5.1273    3.0744   52.0828 C.ar    1  ZINC000885154703   -0.1100
     22 Br22       -6.8716    2.4851   52.5140 Br      1  ZINC000885154703   -0.0300
     23 C23        -4.3733    2.3761   51.1627 C.ar    1  ZINC000885154703    0.0100
     24 C24        -4.9365    1.1423   50.5057 C.3     1  ZINC000885154703   -0.1300
     25 C25        -2.2350    1.6810   46.1457 C.3     1  ZINC000885154703   -0.1300
     26 N26        -0.3256    0.5951   43.1062 N.2     1  ZINC000885154703   -0.4800
     27 H27         1.2964    0.4846   40.9842 H       1  ZINC000885154703    0.0600
     28 H28         1.8827   -0.9717   41.8232 H       1  ZINC000885154703    0.0600
     29 H29         1.6554   -0.9924   40.0580 H       1  ZINC000885154703    0.0700
     30 H30        -0.7882   -0.7090   40.3693 H       1  ZINC000885154703    0.1000
     31 H31        -0.2020   -2.1653   41.2083 H       1  ZINC000885154703    0.0900
     32 H32         0.5487    0.5292   46.1492 H       1  ZINC000885154703    0.0800
     33 H33         1.0506    2.2174   45.8206 H       1  ZINC000885154703    0.0900
     34 H34         0.3407    1.5306   48.3293 H       1  ZINC000885154703    0.0800
     35 H35        -0.2608    3.0795   47.6514 H       1  ZINC000885154703    0.0800
     36 H36        -3.2401    2.7588   48.2458 H       1  ZINC000885154703    0.4000
     37 H37        -2.9438    5.5334   52.8552 H       1  ZINC000885154703    0.1500
     38 H38        -5.2094    4.7538   53.4047 H       1  ZINC000885154703    0.1500
     39 H39        -5.4587    1.4238   49.5913 H       1  ZINC000885154703    0.0900
     40 H40        -4.1244    0.4566   50.2640 H       1  ZINC000885154703    0.0800
     41 H41        -5.6337    0.6542   51.1867 H       1  ZINC000885154703    0.0900
     42 H42        -2.7938    2.6159   46.1018 H       1  ZINC000885154703    0.0900
     43 H43        -2.8709    0.8507   45.8386 H       1  ZINC000885154703    0.0800
@<TRIPOS>BOND
     1     1     2    1
     2     1    27    1
     3     1    28    1
     4     1    29    1
     5     2     3    1
     6     2    30    1
     7     2    31    1
     8     3    26    1
     9     3     4    2
    10     4     5    1
    11     5     6    1
    12     6     7    1
    13     6    26    2
    14     7     8    1
    15     7    25    1
    16     7     9    1
    17     9    10    1
    18     9    32    1
    19     9    33    1
    20    10    11    1
    21    10    34    1
    22    10    35    1
    23    11    12    1
    24    11    13    1
    25    11    25    1
    26    13    14   am
    27    13    36    1
    28    14    15    2
    29    14    16    1
    30    16    23   ar
    31    16    17   ar
    32    17    18    1
    33    17    19   ar
    34    19    20   ar
    35    19    37    1
    36    20    21   ar
    37    20    38    1
    38    21    22    1
    39    21    23   ar
    40    23    24    1
    41    24    39    1
    42    24    40    1
    43    24    41    1
    44    25    42    1
    45    25    43    1
@<TRIPOS>SUBSTRUCTURE
     1 ZINC000885154703        1 TEMP              0 ****  ****    0 ROOT


##########                                Name:    ZINC001078748831
##########                DOCK_Rotatable_Bonds:                   6
##########                         Heavy_Atoms:                  23
##########                    Molecular_Weight:             333.417
##########                DOCK_Rotatable_Bonds:                   6
##########                       Formal_Charge:           0.0299999
##########                     HBond_Acceptors:                   9
##########                        HBond_Donors:                   2
##########                         Heavy_Atoms:                  23
##########                          Grid_Score:          -34.631088
##########                     Grid_vdw_energy:          -35.144382
##########                      Grid_es_energy:            0.513292
##########           Internal_energy_repulsive:            7.094199

@<TRIPOS>MOLECULE
ZINC001078748831
 42 45 1 0 0
SMALL
USER_CHARGES


@<TRIPOS>ATOM
      1 C1         -5.6142    1.1137   50.5283 C.3     1  ZINC001078748831    0.1000
      2 N2         -6.6781    0.3015   51.1241 N.pl3   1  ZINC001078748831   -0.1400
      3 N3         -6.8385   -0.9557   50.9112 N.2     1  ZINC001078748831   -0.2900
      4 C4         -7.8768   -1.3763   51.5929 C.2     1  ZINC001078748831    0.0400
      5 C5         -8.3719   -0.2460   52.2733 C.2     1  ZINC001078748831   -0.0500
      6 C6         -9.5373   -0.1876   53.1806 C.2     1  ZINC001078748831    0.6200
      7 O7         -9.7450    0.8127   53.8395 O.2     1  ZINC001078748831   -0.5200
      8 N8        -10.3694   -1.2433   53.2775 N.am    1  ZINC001078748831   -0.7000
      9 C9        -11.5236   -1.1860   54.1781 C.3     1  ZINC001078748831    0.1500
     10 H10       -12.1324   -0.2940   54.0307 H       1  ZINC001078748831    0.1100
     11 C11       -11.1710   -1.4567   55.6520 C.3     1  ZINC001078748831   -0.1800
     12 C12       -11.4252   -2.9473   55.3631 C.3     1  ZINC001078748831    0.0800
     13 H13       -10.5390   -3.4850   55.0262 H       1  ZINC001078748831    0.1000
     14 N14       -12.1400   -3.6433   56.4414 N.3     1  ZINC001078748831   -0.6700
     15 C15       -11.2320   -4.5169   57.1967 C.3     1  ZINC001078748831    0.1400
     16 C16       -10.8690   -3.8563   58.5017 C.2     1  ZINC001078748831    0.0600
     17 N17        -9.9935   -4.3360   59.3408 N.2     1  ZINC001078748831   -0.5700
     18 S18        -9.9001   -3.3692   60.5615 S.3     1  ZINC001078748831    0.6800
     19 N19       -10.9461   -2.3066   60.1029 N.2     1  ZINC001078748831   -0.5700
     20 C20       -11.4210   -2.6699   58.9438 C.2     1  ZINC001078748831    0.0500
     21 C21       -12.3337   -2.4821   54.2206 C.3     1  ZINC001078748831   -0.1000
     22 C22       -13.8545   -2.4607   54.3783 C.3     1  ZINC001078748831   -0.1000
     23 C23       -13.9284   -2.7054   52.8602 C.3     1  ZINC001078748831   -0.1400
     24 C24       -12.5282   -3.3361   52.9673 C.3     1  ZINC001078748831   -0.1200
     25 N25        -7.5704    0.7519   51.9330 N.2     1  ZINC001078748831   -0.2500
     26 H26        -4.7383    1.0975   51.1769 H       1  ZINC001078748831    0.1000
     27 H27        -5.3507    0.7075   49.5517 H       1  ZINC001078748831    0.1100
     28 H28        -5.9621    2.1402   50.4131 H       1  ZINC001078748831    0.1100
     29 H29        -8.2712   -2.3812   51.6256 H       1  ZINC001078748831    0.2100
     30 H30       -10.2043   -2.0409   52.7509 H       1  ZINC001078748831    0.4100
     31 H31       -10.1339   -1.2314   55.9008 H       1  ZINC001078748831    0.0700
     32 H32       -11.8799   -1.0221   56.3568 H       1  ZINC001078748831    0.1000
     33 H33       -12.6010   -2.9861   57.0526 H       1  ZINC001078748831    0.3500
     34 H34       -11.7253   -5.4683   57.3959 H       1  ZINC001078748831    0.1000
     35 H35       -10.3275   -4.6917   56.6140 H       1  ZINC001078748831    0.0600
     36 H36       -12.1648   -2.1106   58.3957 H       1  ZINC001078748831    0.2000
     37 H37       -14.2442   -3.2862   54.9740 H       1  ZINC001078748831    0.1000
     38 H38       -14.2489   -1.4920   54.6851 H       1  ZINC001078748831    0.0700
     39 H39       -14.7046   -3.4135   52.5700 H       1  ZINC001078748831    0.0700
     40 H40       -13.9498   -1.7884   52.2713 H       1  ZINC001078748831    0.0800
     41 H41       -11.8631   -3.0667   52.1468 H       1  ZINC001078748831    0.0700
     42 H42       -12.5451   -4.4077   53.1663 H       1  ZINC001078748831    0.0900
@<TRIPOS>BOND
     1     1     2    1
     2     1    26    1
     3     1    27    1
     4     1    28    1
     5     2    25    1
     6     2     3    1
     7     3     4    2
     8     4     5    1
     9     4    29    1
    10     5     6    1
    11     5    25    2
    12     6     7    2
    13     6     8   am
    14     8     9    1
    15     8    30    1
    16     9    10    1
    17     9    21    1
    18     9    11    1
    19    11    12    1
    20    11    31    1
    21    11    32    1
    22    12    13    1
    23    12    14    1
    24    12    21    1
    25    14    15    1
    26    14    33    1
    27    15    16    1
    28    15    34    1
    29    15    35    1
    30    16    20    1
    31    16    17    2
    32    17    18    1
    33    18    19    1
    34    19    20    2
    35    20    36    1
    36    21    24    1
    37    21    22    1
    38    22    23    1
    39    22    37    1
    40    22    38    1
    41    23    24    1
    42    23    39    1
    43    23    40    1
    44    24    41    1
    45    24    42    1
@<TRIPOS>SUBSTRUCTURE
     1 ZINC001078748831        1 TEMP              0 ****  ****    0 ROOT


##########                                Name:    ZINC001009116151
##########                DOCK_Rotatable_Bonds:                   6
##########                         Heavy_Atoms:                  25
##########                    Molecular_Weight:             342.481
##########                DOCK_Rotatable_Bonds:                   6
##########                       Formal_Charge:           0.0600006
##########                     HBond_Acceptors:                   4
##########                        HBond_Donors:                   1
##########                         Heavy_Atoms:                  25
##########                          Grid_Score:          -34.621166
##########                     Grid_vdw_energy:          -34.033485
##########                      Grid_es_energy:           -0.587680
##########           Internal_energy_repulsive:           13.614431

@<TRIPOS>MOLECULE
ZINC001009116151
 55 59 1 0 0
SMALL
USER_CHARGES


@<TRIPOS>ATOM
      1 O1        -10.9909   -5.0196   58.2502 O.2     1  ZINC001009116151   -0.5400
      2 C2        -11.5771   -3.9587   58.2076 C.2     1  ZINC001009116151    0.5200
      3 N3        -12.7417   -3.8587   57.5367 N.am    1  ZINC001009116151   -0.7300
      4 C4        -13.2964   -5.0299   56.8535 C.3     1  ZINC001009116151    0.1500
      5 C5        -13.5180   -4.7012   55.3758 C.3     1  ZINC001009116151   -0.1200
      6 H6        -13.9131   -5.5151   54.7679 H       1  ZINC001009116151    0.1100
      7 C7        -12.5303   -3.7400   54.7114 C.3     1  ZINC001009116151   -0.1700
      8 H8        -11.6725   -3.3756   55.2765 H       1  ZINC001009116151    0.1200
      9 C9        -12.4155   -3.7638   53.1720 C.3     1  ZINC001009116151    0.1300
     10 N10       -13.4641   -2.8275   52.7044 N.am    1  ZINC001009116151   -0.6200
     11 C11       -13.3896   -1.9422   51.6910 C.2     1  ZINC001009116151    0.5500
     12 O12       -12.3703   -1.8494   51.0404 O.2     1  ZINC001009116151   -0.5300
     13 C13       -14.5730   -1.0675   51.3663 C.3     1  ZINC001009116151   -0.1200
     14 C14       -14.1329    0.1978   50.5939 C.3     1  ZINC001009116151   -0.0900
     15 C15       -14.2834   -0.1703   49.1361 C.2     1  ZINC001009116151   -0.1800
     16 C16       -15.0292   -1.2321   48.9941 C.2     1  ZINC001009116151   -0.1500
     17 C17       -15.5003   -1.7491   50.3335 C.3     1  ZINC001009116151   -0.0900
     18 C18       -14.6130   -3.0853   53.6034 C.3     1  ZINC001009116151    0.1200
     19 C19       -13.9669   -3.2802   55.0292 C.3     1  ZINC001009116151   -0.1600
     20 H20       -14.2080   -2.5459   55.7977 H       1  ZINC001009116151    0.1300
     21 C21       -11.0065   -2.7538   58.9103 C.3     1  ZINC001009116151   -0.0700
     22 C22        -9.8201   -3.1826   59.7761 C.3     1  ZINC001009116151   -0.1100
     23 C23        -9.2409   -1.9593   60.4894 C.3     1  ZINC001009116151   -0.1100
     24 C24       -10.0410   -0.7150   60.0992 C.3     1  ZINC001009116151   -0.0900
     25 C25        -9.9582   -0.5093   58.5854 C.3     1  ZINC001009116151   -0.1100
     26 C26       -10.5374   -1.7326   57.8721 C.3     1  ZINC001009116151   -0.0900
     27 C27       -11.5034   -0.8996   60.5095 C.3     1  ZINC001009116151   -0.1100
     28 C28       -12.0827   -2.1229   59.7961 C.3     1  ZINC001009116151   -0.1000
     29 H29       -13.2125   -3.0112   57.5059 H       1  ZINC001009116151    0.4000
     30 H30       -12.6004   -5.8643   56.9398 H       1  ZINC001009116151    0.0800
     31 H31       -14.2474   -5.3013   57.3120 H       1  ZINC001009116151    0.0700
     32 H32       -11.4303   -3.4181   52.8589 H       1  ZINC001009116151    0.0900
     33 H33       -12.6054   -4.7677   52.7921 H       1  ZINC001009116151    0.0800
     34 H34       -15.1216   -0.8036   52.2705 H       1  ZINC001009116151    0.1100
     35 H35       -14.7805    1.0386   50.8420 H       1  ZINC001009116151    0.0900
     36 H36       -13.0939    0.4381   50.8194 H       1  ZINC001009116151    0.0800
     37 H37       -13.8334    0.3738   48.3190 H       1  ZINC001009116151    0.1300
     38 H38       -15.2772   -1.6818   48.0441 H       1  ZINC001009116151    0.1300
     39 H39       -15.3911   -2.8326   50.3820 H       1  ZINC001009116151    0.0900
     40 H40       -16.5377   -1.4631   50.5074 H       1  ZINC001009116151    0.0900
     41 H41       -15.2857   -2.2277   53.6159 H       1  ZINC001009116151    0.0900
     42 H42       -15.1461   -3.9832   53.2910 H       1  ZINC001009116151    0.0800
     43 H43       -10.1544   -3.9101   60.5158 H       1  ZINC001009116151    0.0700
     44 H44        -9.0535   -3.6321   59.1450 H       1  ZINC001009116151    0.0700
     45 H45        -9.3000   -2.1058   61.5680 H       1  ZINC001009116151    0.0700
     46 H46        -8.1991   -1.8277   60.1972 H       1  ZINC001009116151    0.0700
     47 H47        -9.6283    0.1565   60.6075 H       1  ZINC001009116151    0.0700
     48 H48       -10.5282    0.3772   58.3075 H       1  ZINC001009116151    0.0700
     49 H49        -8.9163   -0.3778   58.2931 H       1  ZINC001009116151    0.0700
     50 H50        -9.7707   -2.1820   57.2410 H       1  ZINC001009116151    0.0700
     51 H51       -11.3826   -1.4271   57.2552 H       1  ZINC001009116151    0.0700
     52 H52       -11.5625   -1.0462   61.5880 H       1  ZINC001009116151    0.0700
     53 H53       -12.0735   -0.0131   60.2315 H       1  ZINC001009116151    0.0700
     54 H54       -12.9279   -1.8174   59.1794 H       1  ZINC001009116151    0.0700
     55 H55       -12.4169   -2.8504   60.5358 H       1  ZINC001009116151    0.0700
@<TRIPOS>BOND
     1     1     2    2
     2     2     3   am
     3     2    21    1
     4     3     4    1
     5     3    29    1
     6     4     5    1
     7     4    30    1
     8     4    31    1
     9     5     6    1
    10     5    19    1
    11     5     7    1
    12     7     8    1
    13     7    19    1
    14     7     9    1
    15     9    10    1
    16     9    32    1
    17     9    33    1
    18    10    11   am
    19    10    18    1
    20    11    12    2
    21    11    13    1
    22    13    17    1
    23    13    14    1
    24    13    34    1
    25    14    15    1
    26    14    35    1
    27    14    36    1
    28    15    16    2
    29    15    37    1
    30    16    17    1
    31    16    38    1
    32    17    39    1
    33    17    40    1
    34    18    19    1
    35    18    41    1
    36    18    42    1
    37    19    20    1
    38    21    26    1
    39    21    28    1
    40    21    22    1
    41    22    23    1
    42    22    43    1
    43    22    44    1
    44    23    24    1
    45    23    45    1
    46    23    46    1
    47    24    25    1
    48    24    27    1
    49    24    47    1
    50    25    26    1
    51    25    48    1
    52    25    49    1
    53    26    50    1
    54    26    51    1
    55    27    28    1
    56    27    52    1
    57    27    53    1
    58    28    54    1
    59    28    55    1
@<TRIPOS>SUBSTRUCTURE
     1 ZINC001009116151        1 TEMP              0 ****  ****    0 ROOT


##########                                Name:    ZINC000563265674
##########                DOCK_Rotatable_Bonds:                   7
##########                         Heavy_Atoms:                  25
##########                    Molecular_Weight:             386.859
##########                DOCK_Rotatable_Bonds:                   7
##########                       Formal_Charge:          0.00999963
##########                     HBond_Acceptors:                  10
##########                        HBond_Donors:                   2
##########                         Heavy_Atoms:                  25
##########                          Grid_Score:          -34.585258
##########                     Grid_vdw_energy:          -33.398006
##########                      Grid_es_energy:           -1.187254
##########           Internal_energy_repulsive:           11.170932

@<TRIPOS>MOLECULE
ZINC000563265674
 44 45 1 0 0
SMALL
USER_CHARGES


@<TRIPOS>ATOM
      1 C1        -10.8560   -1.7094   51.9933 C.3     1  ZINC000563265674   -0.0600
      2 C2        -11.6333   -2.6874   52.8361 C.2     1  ZINC000563265674    0.1700
      3 N3        -11.7211   -3.9693   52.6424 N.2     1  ZINC000563265674   -0.3800
      4 O4        -12.4207   -4.4756   53.4943 O.3     1  ZINC000563265674    0.0900
      5 C5        -12.8589   -3.5362   54.3378 C.2     1  ZINC000563265674    0.1900
      6 C6        -13.7524   -3.7490   55.5326 C.3     1  ZINC000563265674    0.2100
      7 C7        -15.1519   -3.2128   55.2247 C.3     1  ZINC000563265674   -0.1400
      8 C8        -13.8367   -5.2440   55.8465 C.3     1  ZINC000563265674   -0.1800
      9 N9        -13.1987   -3.0357   56.6913 N.3     1  ZINC000563265674   -0.6600
     10 C10       -11.8144   -3.4517   56.9533 C.3     1  ZINC000563265674    0.0400
     11 C11       -11.2129   -2.5595   58.0083 C.2     1  ZINC000563265674    0.5200
     12 O12       -10.5377   -1.6058   57.6830 O.2     1  ZINC000563265674   -0.4900
     13 N13       -11.4251   -2.8212   59.3132 N.am    1  ZINC000563265674   -0.6700
     14 C14       -10.8664   -1.9923   60.2932 C.ar    1  ZINC000563265674    0.1400
     15 C15       -11.5730   -0.8922   60.7592 C.ar    1  ZINC000563265674   -0.0300
     16 C16       -11.0192   -0.0763   61.7268 C.ar    1  ZINC000563265674   -0.6400
     17 S17       -11.9161    1.3201   62.3189 S.o2    1  ZINC000563265674    2.5000
     18 C18       -11.0259    2.7492   61.6437 C.3     1  ZINC000563265674   -0.6500
     19 O19       -13.1955    1.1976   61.7128 O.2     1  ZINC000563265674   -0.9300
     20 O20       -11.7654    1.2604   63.7306 O.2     1  ZINC000563265674   -0.9300
     21 C21        -9.7623   -0.3540   62.2314 C.ar    1  ZINC000563265674   -0.0300
     22 C22        -9.0548   -1.4489   61.7696 C.ar    1  ZINC000563265674   -0.1100
     23 C23        -9.6052   -2.2724   60.8060 C.ar    1  ZINC000563265674   -0.0200
     24 Cl24       -8.7170   -3.6470   60.2269 Cl      1  ZINC000563265674   -0.0500
     25 N25       -12.3589   -2.3946   53.9300 N.2     1  ZINC000563265674   -0.4700
     26 H26        -9.8403   -1.6238   52.3797 H       1  ZINC000563265674    0.0900
     27 H27       -10.8241   -2.0628   50.9627 H       1  ZINC000563265674    0.0900
     28 H28       -11.3413   -0.7338   52.0281 H       1  ZINC000563265674    0.0900
     29 H29       -15.5627   -3.7420   54.3648 H       1  ZINC000563265674    0.0800
     30 H30       -15.7982   -3.3667   56.0888 H       1  ZINC000563265674    0.0800
     31 H31       -15.0918   -2.1477   55.0010 H       1  ZINC000563265674    0.0700
     32 H32       -12.8397   -5.6260   56.0659 H       1  ZINC000563265674    0.0700
     33 H33       -14.4830   -5.3979   56.7107 H       1  ZINC000563265674    0.0800
     34 H34       -14.2475   -5.7733   54.9867 H       1  ZINC000563265674    0.0800
     35 H35       -13.2578   -2.0366   56.5629 H       1  ZINC000563265674    0.3600
     36 H36       -11.8052   -4.4843   57.3023 H       1  ZINC000563265674    0.1200
     37 H37       -11.2315   -3.3733   56.0356 H       1  ZINC000563265674    0.0800
     38 H38       -11.9651   -3.5838   59.5733 H       1  ZINC000563265674    0.4200
     39 H39       -12.5547   -0.6740   60.3655 H       1  ZINC000563265674    0.1700
     40 H40       -11.0270    2.6967   60.5550 H       1  ZINC000563265674    0.1300
     41 H41       -11.5176    3.6678   61.9636 H       1  ZINC000563265674    0.1400
     42 H42        -9.9981    2.7418   62.0067 H       1  ZINC000563265674    0.1400
     43 H43        -9.3320    0.2856   62.9877 H       1  ZINC000563265674    0.1500
     44 H44        -8.0730   -1.6630   62.1655 H       1  ZINC000563265674    0.1500
@<TRIPOS>BOND
     1     1     2    1
     2     1    26    1
     3     1    27    1
     4     1    28    1
     5     2    25    1
     6     2     3    2
     7     3     4    1
     8     4     5    1
     9     5     6    1
    10     5    25    2
    11     6     7    1
    12     6     8    1
    13     6     9    1
    14     7    29    1
    15     7    30    1
    16     7    31    1
    17     8    32    1
    18     8    33    1
    19     8    34    1
    20     9    10    1
    21     9    35    1
    22    10    11    1
    23    10    36    1
    24    10    37    1
    25    11    12    2
    26    11    13   am
    27    13    14    1
    28    13    38    1
    29    14    23   ar
    30    14    15   ar
    31    15    16   ar
    32    15    39    1
    33    16    17    1
    34    16    21   ar
    35    17    18    1
    36    17    19    2
    37    17    20    2
    38    18    40    1
    39    18    41    1
    40    18    42    1
    41    21    22   ar
    42    21    43    1
    43    22    23   ar
    44    22    44    1
    45    23    24    1
@<TRIPOS>SUBSTRUCTURE
     1 ZINC000563265674        1 TEMP              0 ****  ****    0 ROOT


##########                                Name:    ZINC000642096826
##########                DOCK_Rotatable_Bonds:                  12
##########                         Heavy_Atoms:                  25
##########                    Molecular_Weight:             345.485
##########                DOCK_Rotatable_Bonds:                  12
##########                       Formal_Charge:          0.00999919
##########                     HBond_Acceptors:                   5
##########                        HBond_Donors:                   1
##########                         Heavy_Atoms:                  25
##########                          Grid_Score:          -34.527859
##########                     Grid_vdw_energy:          -34.005615
##########                      Grid_es_energy:           -0.522243
##########           Internal_energy_repulsive:           16.788303

@<TRIPOS>MOLECULE
ZINC000642096826
 56 57 1 0 0
SMALL
USER_CHARGES


@<TRIPOS>ATOM
      1 C1         -8.5256   -0.6673   52.0465 C.3     1  ZINC000642096826   -0.1500
      2 C2         -9.7511   -1.5705   52.2000 C.3     1  ZINC000642096826   -0.1400
      3 C3        -10.5521   -1.1386   53.4299 C.3     1  ZINC000642096826    0.1200
      4 N4        -11.8054   -1.8949   53.4866 N.am    1  ZINC000642096826   -0.6200
      5 C5        -13.0667   -1.2519   53.1098 C.3     1  ZINC000642096826    0.1100
      6 C6        -13.3015   -1.4303   51.6084 C.3     1  ZINC000642096826   -0.1400
      7 C7        -14.6669   -0.8506   51.2334 C.3     1  ZINC000642096826   -0.1500
      8 C8        -11.7982   -3.1823   53.8853 C.2     1  ZINC000642096826    0.5200
      9 O9        -10.7543   -3.7142   54.1987 O.2     1  ZINC000642096826   -0.5200
     10 C10       -13.0873   -3.9609   53.9419 C.3     1  ZINC000642096826    0.0400
     11 N11       -13.7308   -3.7486   55.2453 N.3     1  ZINC000642096826   -0.5200
     12 C12       -15.1924   -3.6941   55.1081 C.3     1  ZINC000642096826    0.0100
     13 C13       -13.3305   -4.7859   56.2053 C.3     1  ZINC000642096826    0.0900
     14 C14       -12.5353   -4.1580   57.3209 C.ar    1  ZINC000642096826   -0.0500
     15 C15       -11.2013   -4.4862   57.4852 C.ar    1  ZINC000642096826   -0.1000
     16 C16       -10.4678   -3.9154   58.5047 C.ar    1  ZINC000642096826   -0.0600
     17 C17       -11.0745   -3.0046   59.3712 C.ar    1  ZINC000642096826   -0.1400
     18 C18       -10.2944   -2.3886   60.4657 C.2     1  ZINC000642096826    0.5600
     19 O19        -9.4621   -3.0436   61.0621 O.2     1  ZINC000642096826   -0.5300
     20 N20       -10.5062   -1.1008   60.8022 N.am    1  ZINC000642096826   -0.7000
     21 C21        -9.7344   -0.4909   61.8879 C.3     1  ZINC000642096826    0.0800
     22 C22       -10.1194    0.9257   62.3191 C.3     1  ZINC000642096826   -0.1900
     23 C23       -10.4487   -0.2649   63.2219 C.3     1  ZINC000642096826   -0.1900
     24 C24       -12.4204   -2.6775   59.1997 C.ar    1  ZINC000642096826   -0.0900
     25 C25       -13.1411   -3.2516   58.1729 C.ar    1  ZINC000642096826   -0.1200
     26 H26        -8.8491    0.3665   51.9247 H       1  ZINC000642096826    0.0600
     27 H27        -7.8998   -0.7500   52.9350 H       1  ZINC000642096826    0.0600
     28 H28        -7.9549   -0.9750   51.1702 H       1  ZINC000642096826    0.0600
     29 H29       -10.3769   -1.4878   51.3113 H       1  ZINC000642096826    0.0600
     30 H30        -9.4276   -2.6042   52.3216 H       1  ZINC000642096826    0.0600
     31 H31        -9.9690   -1.3334   54.3299 H       1  ZINC000642096826    0.0800
     32 H32       -10.7733   -0.0733   53.3636 H       1  ZINC000642096826    0.0800
     33 H33       -13.8871   -1.7093   53.6628 H       1  ZINC000642096826    0.0800
     34 H34       -13.0174   -0.1889   53.3461 H       1  ZINC000642096826    0.0800
     35 H35       -12.5210   -0.9091   51.0542 H       1  ZINC000642096826    0.0700
     36 H36       -13.2767   -2.4913   51.3603 H       1  ZINC000642096826    0.0700
     37 H37       -14.8342   -0.9777   50.1639 H       1  ZINC000642096826    0.0600
     38 H38       -15.4475   -1.3718   51.7877 H       1  ZINC000642096826    0.0600
     39 H39       -14.6917    0.2105   51.4815 H       1  ZINC000642096826    0.0600
     40 H40       -13.7526   -3.6204   53.1485 H       1  ZINC000642096826    0.0600
     41 H41       -12.8769   -5.0221   53.8093 H       1  ZINC000642096826    0.1000
     42 H42       -15.5532   -4.6333   54.6891 H       1  ZINC000642096826    0.0200
     43 H43       -15.6435   -3.5360   56.0877 H       1  ZINC000642096826    0.0700
     44 H44       -15.4648   -2.8722   54.4459 H       1  ZINC000642096826    0.0900
     45 H45       -14.2199   -5.2628   56.6168 H       1  ZINC000642096826    0.0500
     46 H46       -12.7189   -5.5329   55.6990 H       1  ZINC000642096826    0.0900
     47 H47       -10.7332   -5.1911   56.8141 H       1  ZINC000642096826    0.1300
     48 H48        -9.4268   -4.1729   58.6324 H       1  ZINC000642096826    0.1400
     49 H49       -11.1695   -0.5778   60.3254 H       1  ZINC000642096826    0.4000
     50 H50        -8.6782   -0.7581   61.9215 H       1  ZINC000642096826    0.1400
     51 H51        -9.3164    1.5909   62.6363 H       1  ZINC000642096826    0.1000
     52 H52       -10.9469    1.4039   61.7950 H       1  ZINC000642096826    0.1000
     53 H53       -11.4929   -0.5698   63.2917 H       1  ZINC000642096826    0.1000
     54 H54        -9.8623   -0.3829   64.1331 H       1  ZINC000642096826    0.1100
     55 H55       -12.8957   -1.9738   59.8670 H       1  ZINC000642096826    0.1200
     56 H56       -14.1826   -2.9992   58.0388 H       1  ZINC000642096826    0.1300
@<TRIPOS>BOND
     1     1     2    1
     2     1    26    1
     3     1    27    1
     4     1    28    1
     5     2     3    1
     6     2    29    1
     7     2    30    1
     8     3     4    1
     9     3    31    1
    10     3    32    1
    11     4     5    1
    12     4     8   am
    13     5     6    1
    14     5    33    1
    15     5    34    1
    16     6     7    1
    17     6    35    1
    18     6    36    1
    19     7    37    1
    20     7    38    1
    21     7    39    1
    22     8     9    2
    23     8    10    1
    24    10    11    1
    25    10    40    1
    26    10    41    1
    27    11    12    1
    28    11    13    1
    29    12    42    1
    30    12    43    1
    31    12    44    1
    32    13    14    1
    33    13    45    1
    34    13    46    1
    35    14    25   ar
    36    14    15   ar
    37    15    16   ar
    38    15    47    1
    39    16    17   ar
    40    16    48    1
    41    17    18    1
    42    17    24   ar
    43    18    19    2
    44    18    20   am
    45    20    21    1
    46    20    49    1
    47    21    23    1
    48    21    22    1
    49    21    50    1
    50    22    23    1
    51    22    51    1
    52    22    52    1
    53    23    53    1
    54    23    54    1
    55    24    25   ar
    56    24    55    1
    57    25    56    1
@<TRIPOS>SUBSTRUCTURE
     1 ZINC000642096826        1 TEMP              0 ****  ****    0 ROOT


##########                                Name:    ZINC001015666108
##########                DOCK_Rotatable_Bonds:                   7
##########                         Heavy_Atoms:                  25
##########                    Molecular_Weight:             346.429
##########                DOCK_Rotatable_Bonds:                   7
##########                       Formal_Charge:          -0.0199997
##########                     HBond_Acceptors:                   7
##########                        HBond_Donors:                   1
##########                         Heavy_Atoms:                  25
##########                          Grid_Score:          -34.504402
##########                     Grid_vdw_energy:          -33.729576
##########                      Grid_es_energy:           -0.774825
##########           Internal_energy_repulsive:           14.043248

@<TRIPOS>MOLECULE
ZINC001015666108
 51 53 1 0 0
SMALL
USER_CHARGES


@<TRIPOS>ATOM
      1 C1        -15.1918   -0.5412   48.2895 C.3     1  ZINC001015666108   -0.1400
      2 C2        -13.8569   -0.0575   48.8597 C.3     1  ZINC001015666108   -0.0700
      3 C3        -14.0944    0.6321   50.1785 C.2     1  ZINC001015666108   -0.0700
      4 C4        -14.0938    0.0507   51.4140 C.2     1  ZINC001015666108   -0.0900
      5 C5        -13.8606   -1.3691   51.6981 C.2     1  ZINC001015666108    0.6100
      6 O6        -13.6422   -2.1444   50.7857 O.2     1  ZINC001015666108   -0.5100
      7 N7        -13.8879   -1.8153   52.9695 N.am    1  ZINC001015666108   -0.7200
      8 C8        -13.6567   -3.2339   53.2532 C.3     1  ZINC001015666108    0.1400
      9 H9        -14.0939   -3.8520   52.4691 H       1  ZINC001015666108    0.1100
     10 C10       -12.1418   -3.5162   53.3770 C.3     1  ZINC001015666108   -0.1300
     11 C11       -11.9053   -3.4731   54.9075 C.3     1  ZINC001015666108    0.0300
     12 N12       -13.1323   -4.1025   55.4590 N.3     1  ZINC001015666108   -0.5100
     13 C13       -13.3251   -3.7344   56.8680 C.3     1  ZINC001015666108    0.1700
     14 H14       -13.6345   -2.6912   56.9319 H       1  ZINC001015666108    0.0900
     15 C15       -14.4054   -4.6253   57.4847 C.3     1  ZINC001015666108   -0.1500
     16 C16       -12.0313   -3.9214   57.6177 C.2     1  ZINC001015666108    0.1900
     17 N17       -11.4009   -3.0155   58.3256 N.2     1  ZINC001015666108   -0.4800
     18 C18       -10.3041   -3.6290   58.8048 C.2     1  ZINC001015666108    0.1800
     19 C19        -9.2475   -3.0098   59.6828 C.3     1  ZINC001015666108    0.0000
     20 C20        -9.0173   -1.5582   59.2575 C.3     1  ZINC001015666108   -0.1500
     21 C21        -9.7100   -3.0468   61.1407 C.3     1  ZINC001015666108   -0.1500
     22 N22       -10.3232   -4.8541   58.3719 N.2     1  ZINC001015666108   -0.3800
     23 O23       -11.3102   -5.0442   57.6928 O.3     1  ZINC001015666108    0.1000
     24 C24       -14.2513   -3.6088   54.6233 C.3     1  ZINC001015666108    0.0300
     25 O25       -14.3452    1.0110   52.3275 O.3     1  ZINC001015666108   -0.1700
     26 C26       -14.5054    2.1859   51.7048 C.2     1  ZINC001015666108    0.0000
     27 C27       -14.3533    1.9975   50.3754 C.2     1  ZINC001015666108   -0.2200
     28 H28       -15.0201   -1.0399   47.3356 H       1  ZINC001015666108    0.0600
     29 H29       -15.6530   -1.2402   48.9871 H       1  ZINC001015666108    0.0600
     30 H30       -15.8534    0.3120   48.1395 H       1  ZINC001015666108    0.0500
     31 H31       -13.1954   -0.9107   49.0098 H       1  ZINC001015666108    0.0900
     32 H32       -13.3958    0.6416   48.1620 H       1  ZINC001015666108    0.0700
     33 H33       -14.0607   -1.1972   53.6969 H       1  ZINC001015666108    0.4000
     34 H34       -11.8990   -4.5007   52.9768 H       1  ZINC001015666108    0.0900
     35 H35       -11.5627   -2.7412   52.8750 H       1  ZINC001015666108    0.0800
     36 H36       -11.0218   -4.0519   55.1767 H       1  ZINC001015666108    0.0800
     37 H37       -11.8121   -2.4437   55.2535 H       1  ZINC001015666108    0.0500
     38 H38       -14.0961   -5.6685   57.4208 H       1  ZINC001015666108    0.0800
     39 H39       -14.5485   -4.3521   58.5302 H       1  ZINC001015666108    0.0700
     40 H40       -15.3412   -4.4899   56.9425 H       1  ZINC001015666108    0.0800
     41 H41        -8.3176   -3.5696   59.5822 H       1  ZINC001015666108    0.1000
     42 H42        -9.9472   -0.9984   59.3579 H       1  ZINC001015666108    0.0600
     43 H43        -8.2531   -1.1103   59.8925 H       1  ZINC001015666108    0.0700
     44 H44        -8.6879   -1.5318   58.2188 H       1  ZINC001015666108    0.0600
     45 H45       -10.6398   -2.4870   61.2413 H       1  ZINC001015666108    0.0600
     46 H46        -9.8739   -4.0809   61.4438 H       1  ZINC001015666108    0.0600
     47 H47        -8.9457   -2.5989   61.7759 H       1  ZINC001015666108    0.0700
     48 H48       -14.7006   -2.7301   55.0860 H       1  ZINC001015666108    0.0600
     49 H49       -14.9994   -4.3924   54.5040 H       1  ZINC001015666108    0.1000
     50 H50       -14.7172    3.1292   52.1862 H       1  ZINC001015666108    0.2100
     51 H51       -14.4240    2.7542   49.6080 H       1  ZINC001015666108    0.1600
@<TRIPOS>BOND
     1     1     2    1
     2     1    28    1
     3     1    29    1
     4     1    30    1
     5     2     3    1
     6     2    31    1
     7     2    32    1
     8     3    27    1
     9     3     4    2
    10     4     5    1
    11     4    25    1
    12     5     6    2
    13     5     7   am
    14     7     8    1
    15     7    33    1
    16     8     9    1
    17     8    24    1
    18     8    10    1
    19    10    11    1
    20    10    34    1
    21    10    35    1
    22    11    12    1
    23    11    36    1
    24    11    37    1
    25    12    13    1
    26    12    24    1
    27    13    14    1
    28    13    15    1
    29    13    16    1
    30    15    38    1
    31    15    39    1
    32    15    40    1
    33    16    23    1
    34    16    17    2
    35    17    18    1
    36    18    19    1
    37    18    22    2
    38    19    20    1
    39    19    21    1
    40    19    41    1
    41    20    42    1
    42    20    43    1
    43    20    44    1
    44    21    45    1
    45    21    46    1
    46    21    47    1
    47    22    23    1
    48    24    48    1
    49    24    49    1
    50    25    26    1
    51    26    27    2
    52    26    50    1
    53    27    51    1
@<TRIPOS>SUBSTRUCTURE
     1 ZINC001015666108        1 TEMP              0 ****  ****    0 ROOT


##########                                Name:    ZINC001109404798
##########                DOCK_Rotatable_Bonds:                   7
##########                         Heavy_Atoms:                  25
##########                    Molecular_Weight:              360.48
##########                DOCK_Rotatable_Bonds:                   7
##########                       Formal_Charge:           0.0100002
##########                     HBond_Acceptors:                   7
##########                        HBond_Donors:                   1
##########                         Heavy_Atoms:                  25
##########                          Grid_Score:          -34.458736
##########                     Grid_vdw_energy:          -33.866589
##########                      Grid_es_energy:           -0.592147
##########           Internal_energy_repulsive:           28.021278

@<TRIPOS>MOLECULE
ZINC001109404798
 49 52 1 0 0
SMALL
USER_CHARGES


@<TRIPOS>ATOM
      1 C1        -15.1870   -1.0042   50.3311 C.3     1  ZINC001109404798   -0.0600
      2 C2        -14.5140   -1.8591   51.3738 C.2     1  ZINC001109404798    0.1700
      3 N3        -14.9654   -2.9761   51.8608 N.2     1  ZINC001109404798   -0.3900
      4 O4        -14.1902   -3.4202   52.6813 O.3     1  ZINC001109404798    0.1000
      5 C5        -13.1388   -2.6037   52.7993 C.2     1  ZINC001109404798    0.1900
      6 C6        -11.9534   -2.7928   53.7104 C.3     1  ZINC001109404798    0.1600
      7 H7        -11.4898   -1.8265   53.9089 H       1  ZINC001109404798    0.1000
      8 C8        -10.9365   -3.7180   53.0389 C.3     1  ZINC001109404798   -0.1500
      9 N9        -12.3990   -3.3913   54.9758 N.3     1  ZINC001109404798   -0.4800
     10 C10       -13.4265   -2.5215   55.6521 C.3     1  ZINC001109404798    0.0400
     11 H11       -14.3619   -2.3812   55.1102 H       1  ZINC001109404798    0.1100
     12 C12       -12.5978   -1.2272   55.9106 C.3     1  ZINC001109404798   -0.1600
     13 C13       -11.1657   -1.7588   56.1636 C.3     1  ZINC001109404798   -0.1600
     14 C14       -11.3205   -3.3034   56.0240 C.3     1  ZINC001109404798    0.0400
     15 H15       -10.4027   -3.8509   55.8094 H       1  ZINC001109404798    0.1200
     16 C16       -12.0868   -3.7502   57.3054 C.3     1  ZINC001109404798    0.1500
     17 H17       -12.0883   -4.8367   57.3923 H       1  ZINC001109404798    0.1000
     18 N18       -11.4959   -3.1398   58.4989 N.am    1  ZINC001109404798   -0.7200
     19 C19       -10.4663   -3.7434   59.1250 C.2     1  ZINC001109404798    0.5100
     20 O20       -10.0280   -4.7912   58.6995 O.2     1  ZINC001109404798   -0.5300
     21 C21        -9.8595   -3.1165   60.3538 C.3     1  ZINC001109404798   -0.1300
     22 C22       -10.1492   -1.6142   60.3558 C.3     1  ZINC001109404798   -0.0400
     23 C23        -9.7999   -1.0370   61.7034 C.2     1  ZINC001109404798   -0.1000
     24 C24        -8.8090   -1.5188   62.4552 C.2     1  ZINC001109404798   -0.2100
     25 S25        -8.7006   -0.5972   63.9493 S.3     1  ZINC001109404798    0.1000
     26 C26       -10.0468    0.4207   63.4542 C.2     1  ZINC001109404798   -0.2100
     27 C27       -10.4791    0.0371   62.2521 C.2     1  ZINC001109404798   -0.1300
     28 C28       -13.5500   -3.2272   57.0361 C.3     1  ZINC001109404798   -0.1100
     29 N29       -13.3332   -1.6091   51.9670 N.2     1  ZINC001109404798   -0.4800
     30 H30       -14.8663   -1.3215   49.3388 H       1  ZINC001109404798    0.0900
     31 H31       -16.2684   -1.1123   50.4152 H       1  ZINC001109404798    0.0900
     32 H32       -14.9131    0.0395   50.4850 H       1  ZINC001109404798    0.0900
     33 H33       -10.6059   -3.2740   52.1000 H       1  ZINC001109404798    0.0700
     34 H34       -10.0791   -3.8547   53.6980 H       1  ZINC001109404798    0.0800
     35 H35       -11.4000   -4.6844   52.8404 H       1  ZINC001109404798    0.0800
     36 H36       -12.6171   -0.5779   55.0353 H       1  ZINC001109404798    0.0700
     37 H37       -12.9723   -0.7008   56.7885 H       1  ZINC001109404798    0.0800
     38 H38       -10.4752   -1.3731   55.4136 H       1  ZINC001109404798    0.0700
     39 H39       -10.8304   -1.4959   57.1667 H       1  ZINC001109404798    0.0800
     40 H40       -11.8456   -2.3012   58.8386 H       1  ZINC001109404798    0.4000
     41 H41       -10.2919   -3.5712   61.2450 H       1  ZINC001109404798    0.0900
     42 H42        -8.7815   -3.2786   60.3498 H       1  ZINC001109404798    0.1000
     43 H43        -9.5503   -1.1276   59.5858 H       1  ZINC001109404798    0.0800
     44 H44       -11.2070   -1.4479   60.1525 H       1  ZINC001109404798    0.0800
     45 H45        -8.1711   -2.3482   62.1877 H       1  ZINC001109404798    0.1600
     46 H46       -10.4574    1.2349   64.0329 H       1  ZINC001109404798    0.1600
     47 H47       -11.3020    0.5226   61.7485 H       1  ZINC001109404798    0.1400
     48 H48       -13.8437   -2.5012   57.7944 H       1  ZINC001109404798    0.0800
     49 H49       -14.2549   -4.0580   57.0055 H       1  ZINC001109404798    0.0900
@<TRIPOS>BOND
     1     1     2    1
     2     1    30    1
     3     1    31    1
     4     1    32    1
     5     2    29    1
     6     2     3    2
     7     3     4    1
     8     4     5    1
     9     5     6    1
    10     5    29    2
    11     6     7    1
    12     6     8    1
    13     6     9    1
    14     8    33    1
    15     8    34    1
    16     8    35    1
    17     9    14    1
    18     9    10    1
    19    10    11    1
    20    10    28    1
    21    10    12    1
    22    12    13    1
    23    12    36    1
    24    12    37    1
    25    13    14    1
    26    13    38    1
    27    13    39    1
    28    14    15    1
    29    14    16    1
    30    16    17    1
    31    16    18    1
    32    16    28    1
    33    18    19   am
    34    18    40    1
    35    19    20    2
    36    19    21    1
    37    21    22    1
    38    21    41    1
    39    21    42    1
    40    22    23    1
    41    22    43    1
    42    22    44    1
    43    23    27    1
    44    23    24    2
    45    24    25    1
    46    24    45    1
    47    25    26    1
    48    26    27    2
    49    26    46    1
    50    27    47    1
    51    28    48    1
    52    28    49    1
@<TRIPOS>SUBSTRUCTURE
     1 ZINC001109404798        1 TEMP              0 ****  ****    0 ROOT


##########                                Name:    ZINC000821214121
##########                DOCK_Rotatable_Bonds:                  10
##########                         Heavy_Atoms:                  23
##########                    Molecular_Weight:             338.434
##########                DOCK_Rotatable_Bonds:                  10
##########                       Formal_Charge:          0.00999954
##########                     HBond_Acceptors:                   9
##########                        HBond_Donors:                   3
##########                         Heavy_Atoms:                  23
##########                          Grid_Score:          -34.443958
##########                     Grid_vdw_energy:          -33.470490
##########                      Grid_es_energy:           -0.973468
##########           Internal_energy_repulsive:           14.676027

@<TRIPOS>MOLECULE
ZINC000821214121
 45 46 1 0 0
SMALL
USER_CHARGES


@<TRIPOS>ATOM
      1 C1        -14.1714   -5.5147   56.7690 C.3     1  ZINC000821214121   -0.1500
      2 C2        -13.0751   -4.5778   57.2798 C.3     1  ZINC000821214121    0.0500
      3 N3        -12.1304   -4.2906   56.1920 N.3     1  ZINC000821214121   -0.5200
      4 C4        -12.5841   -3.1472   55.3890 C.3     1  ZINC000821214121    0.0600
      5 C5        -12.4582   -3.4861   53.9023 C.3     1  ZINC000821214121   -0.1200
      6 C6        -11.2525   -2.7520   53.3122 C.3     1  ZINC000821214121    0.0800
      7 O7        -11.1538   -3.0431   51.9166 O.3     1  ZINC000821214121   -0.5700
      8 C8        -10.7775   -4.0618   56.7163 C.3     1  ZINC000821214121    0.0400
      9 C9        -10.8275   -3.0092   57.7936 C.2     1  ZINC000821214121    0.5000
     10 O10       -10.7755   -1.8342   57.4963 O.2     1  ZINC000821214121   -0.4800
     11 N11       -10.9300   -3.3730   59.0872 N.am    1  ZINC000821214121   -0.6300
     12 C12       -10.9779   -2.3994   60.0833 C.2     1  ZINC000821214121    0.0800
     13 C13       -12.1140   -1.8216   60.5664 C.2     1  ZINC000821214121   -0.1000
     14 C14       -13.4686   -2.1708   60.0754 C.2     1  ZINC000821214121    0.2900
     15 N15       -14.1434   -1.5437   59.1290 N.2     1  ZINC000821214121   -0.3300
     16 N16       -15.3645   -2.2274   59.0096 N.pl3   1  ZINC000821214121   -0.2900
     17 N17       -15.3457   -3.1915   59.8653 N.2     1  ZINC000821214121    0.0200
     18 N18       -14.2306   -3.1826   60.5051 N.2     1  ZINC000821214121   -0.2900
     19 C19       -11.8892   -0.8727   61.5636 C.2     1  ZINC000821214121   -0.0500
     20 C20       -13.0107   -0.1184   62.2303 C.3     1  ZINC000821214121   -0.1000
     21 C21       -10.6134   -0.6831   61.8829 C.2     1  ZINC000821214121   -0.2400
     22 C22       -10.1213    0.2859   62.9269 C.3     1  ZINC000821214121   -0.0800
     23 S23        -9.5825   -1.7300   60.9183 S.3     1  ZINC000821214121    0.2600
     24 H24       -14.6367   -5.0810   55.8838 H       1  ZINC000821214121    0.0700
     25 H25       -13.7346   -6.4802   56.5139 H       1  ZINC000821214121    0.0500
     26 H26       -14.9243   -5.6503   57.5456 H       1  ZINC000821214121    0.0600
     27 H27       -13.5246   -3.6471   57.6259 H       1  ZINC000821214121    0.0900
     28 H28       -12.5453   -5.0541   58.1047 H       1  ZINC000821214121    0.0400
     29 H29       -13.6255   -2.9280   55.6247 H       1  ZINC000821214121    0.0400
     30 H30       -11.9690   -2.2766   55.6164 H       1  ZINC000821214121    0.0800
     31 H31       -12.3221   -4.5612   53.7849 H       1  ZINC000821214121    0.0800
     32 H32       -13.3636   -3.1755   53.3808 H       1  ZINC000821214121    0.0700
     33 H33       -11.3771   -1.6782   53.4514 H       1  ZINC000821214121    0.0400
     34 H34       -10.3442   -3.0809   53.8171 H       1  ZINC000821214121    0.0500
     35 H35       -11.9420   -2.8067   51.4087 H       1  ZINC000821214121    0.3800
     36 H36       -10.3875   -4.9903   57.1334 H       1  ZINC000821214121    0.0700
     37 H37       -10.1271   -3.7249   55.9091 H       1  ZINC000821214121    0.1200
     38 H38       -10.9704   -4.3126   59.3250 H       1  ZINC000821214121    0.4200
     39 H39       -16.0866   -2.0140   58.3982 H       1  ZINC000821214121    0.4700
     40 H40       -13.3504   -0.6716   63.1059 H       1  ZINC000821214121    0.0700
     41 H41       -12.6550    0.8651   62.5372 H       1  ZINC000821214121    0.0700
     42 H42       -13.8379   -0.0033   61.5298 H       1  ZINC000821214121    0.0900
     43 H43       -10.0723   -0.2153   63.8935 H       1  ZINC000821214121    0.0700
     44 H44        -9.1288    0.6430   62.6521 H       1  ZINC000821214121    0.0700
     45 H45       -10.8069    1.1309   62.9901 H       1  ZINC000821214121    0.0800
@<TRIPOS>BOND
     1     1     2    1
     2     1    24    1
     3     1    25    1
     4     1    26    1
     5     2     3    1
     6     2    27    1
     7     2    28    1
     8     3     4    1
     9     3     8    1
    10     4     5    1
    11     4    29    1
    12     4    30    1
    13     5     6    1
    14     5    31    1
    15     5    32    1
    16     6     7    1
    17     6    33    1
    18     6    34    1
    19     7    35    1
    20     8     9    1
    21     8    36    1
    22     8    37    1
    23     9    10    2
    24     9    11   am
    25    11    12    1
    26    11    38    1
    27    12    23    1
    28    12    13    2
    29    13    14    1
    30    13    19    1
    31    14    18    1
    32    14    15    2
    33    15    16    1
    34    16    17    1
    35    16    39    1
    36    17    18    2
    37    19    20    1
    38    19    21    2
    39    20    40    1
    40    20    41    1
    41    20    42    1
    42    21    22    1
    43    21    23    1
    44    22    43    1
    45    22    44    1
    46    22    45    1
@<TRIPOS>SUBSTRUCTURE
     1 ZINC000821214121        1 TEMP              0 ****  ****    0 ROOT


##########                                Name:    ZINC000013551438
##########                DOCK_Rotatable_Bonds:                   5
##########                         Heavy_Atoms:                  27
##########                    Molecular_Weight:             377.467
##########                DOCK_Rotatable_Bonds:                   5
##########                       Formal_Charge:          -0.0300005
##########                     HBond_Acceptors:                   6
##########                        HBond_Donors:                   1
##########                         Heavy_Atoms:                  27
##########                          Grid_Score:          -34.425751
##########                     Grid_vdw_energy:          -32.827946
##########                      Grid_es_energy:           -1.597806
##########           Internal_energy_repulsive:           10.818527

@<TRIPOS>MOLECULE
ZINC000013551438
 46 49 1 0 0
SMALL
USER_CHARGES


@<TRIPOS>ATOM
      1 C1        -10.8020   -2.2956   53.4087 C.3     1  <0>         0.0300
      2 O2        -11.1953   -3.4921   54.0838 O.3     1  <0>        -0.3200
      3 C3        -12.0829   -3.3610   55.1057 C.ar    1  <0>         0.1000
      4 C4        -13.4500   -3.3951   54.8457 C.ar    1  <0>        -0.1800
      5 C5        -14.3618   -3.2637   55.8694 C.ar    1  <0>        -0.0900
      6 C6        -13.9195   -3.0953   57.1775 C.ar    1  <0>         0.0700
      7 C7        -12.5398   -3.0611   57.4420 C.ar    1  <0>        -0.0400
      8 C8        -11.6248   -3.2002   56.3989 C.ar    1  <0>        -0.1100
      9 C9        -12.4081   -2.8731   58.8955 C.2     1  <0>        -0.1200
     10 C10       -11.1430   -2.7731   59.6639 C.2     1  <0>         0.1700
     11 C11       -10.1234   -3.6388   59.5106 C.2     1  <0>        -0.3000
     12 S12        -8.8303   -3.1573   60.6055 S.3     1  <0>         0.2500
     13 C13        -9.7722   -1.8455   61.1648 C.2     1  <0>         0.2400
     14 N14        -9.3659   -0.9329   62.1292 N.am    1  <0>        -0.6200
     15 C15       -10.2691   -0.4001   62.9758 C.2     1  <0>         0.5600
     16 O16       -11.4393   -0.7196   62.8960 O.2     1  <0>        -0.5000
     17 C17        -9.8369    0.5726   64.0012 C.ar    1  <0>        -0.1400
     18 C18       -10.7864    1.2745   64.7459 C.ar    1  <0>        -0.0800
     19 C19       -10.3763    2.1806   65.7020 C.ar    1  <0>        -0.1300
     20 C20        -9.0273    2.3944   65.9232 C.ar    1  <0>        -0.0800
     21 C21        -8.0810    1.7025   65.1882 C.ar    1  <0>        -0.1300
     22 C22        -8.4775    0.7892   64.2333 C.ar    1  <0>        -0.0500
     23 N23       -10.9157   -1.8191   60.5578 N.2     1  <0>        -0.5000
     24 C24       -13.6647   -2.8083   59.3963 C.2     1  <0>         0.1300
     25 C25       -14.0097   -2.6193   60.8511 C.3     1  <0>        -0.0900
     26 N26       -14.5734   -2.9394   58.3823 N.pl3   1  <0>        -0.4800
     27 C27       -16.0285   -2.9166   58.5510 C.3     1  <0>         0.0800
     28 H28       -10.3323   -1.6152   54.1191 H       1  <0>         0.0500
     29 H29       -10.0933   -2.5410   52.6176 H       1  <0>         0.1000
     30 H30       -11.6802   -1.8180   52.9744 H       1  <0>         0.0500
     31 H31       -13.7988   -3.5253   53.8318 H       1  <0>         0.1300
     32 H32       -15.4203   -3.2912   55.6566 H       1  <0>         0.1200
     33 H33       -10.5640   -3.1742   56.5999 H       1  <0>         0.1300
     34 H34       -10.1021   -4.4810   58.8348 H       1  <0>         0.1800
     35 H35        -8.4320   -0.6789   62.1937 H       1  <0>         0.4200
     36 H36       -11.8396    1.1087   64.5740 H       1  <0>         0.1300
     37 H37       -11.1097    2.7245   66.2785 H       1  <0>         0.1300
     38 H38        -8.7116    3.1049   66.6728 H       1  <0>         0.1300
     39 H39        -7.0296    1.8743   65.3656 H       1  <0>         0.1300
     40 H40        -7.7380    0.2495   63.6605 H       1  <0>         0.1400
     41 H41       -14.1814   -1.5614   61.0493 H       1  <0>         0.0800
     42 H42       -14.9116   -3.1842   61.0869 H       1  <0>         0.0700
     43 H43       -13.1857   -2.9758   61.4692 H       1  <0>         0.0800
     44 H44       -16.3888   -1.8918   58.4605 H       1  <0>         0.0700
     45 H45       -16.4931   -3.5342   57.7824 H       1  <0>         0.0800
     46 H46       -16.2863   -3.3067   59.5356 H       1  <0>         0.0800
@<TRIPOS>BOND
     1     1     2    1
     2     1    28    1
     3     1    29    1
     4     1    30    1
     5     2     3    1
     6     3     8   ar
     7     3     4   ar
     8     4     5   ar
     9     4    31    1
    10     5     6   ar
    11     5    32    1
    12     6    26    1
    13     6     7   ar
    14     7     8   ar
    15     7     9    1
    16     8    33    1
    17     9    10    1
    18     9    24    2
    19    10    23    1
    20    10    11    2
    21    11    12    1
    22    11    34    1
    23    12    13    1
    24    13    14    1
    25    13    23    2
    26    14    15   am
    27    14    35    1
    28    15    16    2
    29    15    17    1
    30    17    22   ar
    31    17    18   ar
    32    18    19   ar
    33    18    36    1
    34    19    20   ar
    35    19    37    1
    36    20    21   ar
    37    20    38    1
    38    21    22   ar
    39    21    39    1
    40    22    40    1
    41    24    25    1
    42    24    26    1
    43    25    41    1
    44    25    42    1
    45    25    43    1
    46    26    27    1
    47    27    44    1
    48    27    45    1
    49    27    46    1
@<TRIPOS>SUBSTRUCTURE
     1 <0>         1 TEMP              0 ****  ****    0 ROOT


##########                                Name:    ZINC001217683559
##########                DOCK_Rotatable_Bonds:                   3
##########                         Heavy_Atoms:                  25
##########                    Molecular_Weight:             397.234
##########                DOCK_Rotatable_Bonds:                   3
##########                       Formal_Charge:          0.00999987
##########                     HBond_Acceptors:                   7
##########                        HBond_Donors:                   0
##########                         Heavy_Atoms:                  25
##########                          Grid_Score:          -34.425556
##########                     Grid_vdw_energy:          -34.801044
##########                      Grid_es_energy:            0.375490
##########           Internal_energy_repulsive:           31.048353

@<TRIPOS>MOLECULE
ZINC001217683559
 38 42 1 0 0
SMALL
USER_CHARGES


@<TRIPOS>ATOM
      1 Br1       -11.3046    1.8616   61.6413 Br      1  ZINC001217683559    0.0100
      2 C2        -10.2746    1.8735   63.2271 C.ar    1  ZINC001217683559   -0.1200
      3 C3        -10.3990    2.9102   64.1383 C.ar    1  ZINC001217683559   -0.0500
      4 C4         -9.6235    2.8774   65.2877 C.ar    1  ZINC001217683559   -0.1500
      5 C5         -8.7553    1.8197   65.4902 C.ar    1  ZINC001217683559    0.1200
      6 N6         -8.6562    0.8472   64.6076 N.ar    1  ZINC001217683559   -0.4400
      7 C7         -9.3838    0.8371   63.4991 C.ar    1  ZINC001217683559    0.2200
      8 C8         -9.2380   -0.2808   62.5328 C.2     1  ZINC001217683559    0.2100
      9 N9         -8.4374   -1.3085   62.6522 N.2     1  ZINC001217683559   -0.3300
     10 O10        -8.5524   -2.0460   61.6963 O.3     1  ZINC001217683559    0.1000
     11 C11        -9.4638   -1.5512   60.8442 C.2     1  ZINC001217683559    0.2300
     12 C12        -9.8895   -2.1525   59.5636 C.2     1  ZINC001217683559   -0.0600
     13 C13       -10.1734   -1.3525   58.4930 C.2     1  ZINC001217683559    0.1800
     14 N14       -10.5648   -1.8962   57.3140 N.pl3   1  ZINC001217683559   -0.2900
     15 N15       -10.9147   -1.3426   56.0740 N.2     1  ZINC001217683559   -0.3300
     16 C16       -11.2144   -2.3408   55.2770 C.2     1  ZINC001217683559    0.2800
     17 C17       -11.6470   -2.2044   53.8399 C.3     1  ZINC001217683559   -0.0300
     18 C18       -10.9186   -1.0826   53.0811 C.3     1  ZINC001217683559   -0.1200
     19 C19       -10.8659   -2.0382   51.8774 C.3     1  ZINC001217683559   -0.1400
     20 C20       -10.9492   -3.1924   52.8903 C.3     1  ZINC001217683559   -0.1200
     21 N21       -11.0779   -3.4876   55.9281 N.2     1  ZINC001217683559   -0.5300
     22 C22       -10.6827   -3.2510   57.1734 C.2     1  ZINC001217683559    0.2900
     23 C23       -10.3957   -4.0984   58.2612 C.2     1  ZINC001217683559   -0.1000
     24 C24        -9.9980   -3.5580   59.4424 C.2     1  ZINC001217683559   -0.0200
     25 N25        -9.9111   -0.4268   61.3725 N.2     1  ZINC001217683559   -0.4300
     26 H26       -11.0839    3.7253   63.9572 H       1  ZINC001217683559    0.1600
     27 H27        -9.6965    3.6702   66.0175 H       1  ZINC001217683559    0.1500
     28 H28        -8.1500    1.7912   66.3843 H       1  ZINC001217683559    0.1800
     29 H29       -10.0859   -0.2801   58.5865 H       1  ZINC001217683559    0.1900
     30 H30       -12.7305   -2.1794   53.7246 H       1  ZINC001217683559    0.1200
     31 H31       -11.5345   -0.1994   52.9109 H       1  ZINC001217683559    0.0700
     32 H32        -9.9379   -0.8430   53.4918 H       1  ZINC001217683559    0.1000
     33 H33       -11.7359   -1.9665   51.2246 H       1  ZINC001217683559    0.0800
     34 H34        -9.9225   -2.0025   51.3326 H       1  ZINC001217683559    0.0800
     35 H35        -9.9766   -3.5297   53.2487 H       1  ZINC001217683559    0.0900
     36 H36       -11.5896   -4.0126   52.5658 H       1  ZINC001217683559    0.0700
     37 H37       -10.4874   -5.1694   58.1560 H       1  ZINC001217683559    0.1700
     38 H38        -9.7747   -4.1957   60.2849 H       1  ZINC001217683559    0.1700
@<TRIPOS>BOND
     1     1     2    1
     2     2     7   ar
     3     2     3   ar
     4     3     4   ar
     5     3    26    1
     6     4     5   ar
     7     4    27    1
     8     5     6   ar
     9     5    28    1
    10     6     7   ar
    11     7     8    1
    12     8    25    1
    13     8     9    2
    14     9    10    1
    15    10    11    1
    16    11    12    1
    17    11    25    2
    18    12    24    1
    19    12    13    2
    20    13    14    1
    21    13    29    1
    22    14    22    1
    23    14    15    1
    24    15    16    2
    25    16    17    1
    26    16    21    1
    27    17    20    1
    28    17    18    1
    29    17    30    1
    30    18    19    1
    31    18    31    1
    32    18    32    1
    33    19    20    1
    34    19    33    1
    35    19    34    1
    36    20    35    1
    37    20    36    1
    38    21    22    2
    39    22    23    1
    40    23    24    2
    41    23    37    1
    42    24    38    1
@<TRIPOS>SUBSTRUCTURE
     1 ZINC001217683559        1 TEMP              0 ****  ****    0 ROOT


##########                                Name:    ZINC000487792031
##########                DOCK_Rotatable_Bonds:                  12
##########                         Heavy_Atoms:                  29
##########                    Molecular_Weight:             414.569
##########                DOCK_Rotatable_Bonds:                  12
##########                       Formal_Charge:          -0.0100001
##########                     HBond_Acceptors:                   6
##########                        HBond_Donors:                   1
##########                         Heavy_Atoms:                  29
##########                          Grid_Score:          -34.413761
##########                     Grid_vdw_energy:          -33.458508
##########                      Grid_es_energy:           -0.955255
##########           Internal_energy_repulsive:           17.830387

@<TRIPOS>MOLECULE
ZINC000487792031
 59 60 1 0 0
SMALL
USER_CHARGES


@<TRIPOS>ATOM
      1 C1         -8.0506    3.2538   66.2538 C.2     1  ZINC000487792031   -0.1900
      2 C2         -9.1963    2.6351   66.1095 C.2     1  ZINC000487792031   -0.1500
      3 C3         -9.7863    2.4530   64.7348 C.3     1  ZINC000487792031   -0.0900
      4 C4         -9.2907    1.1345   64.1377 C.3     1  ZINC000487792031   -0.0900
      5 C5         -9.7905    1.0072   62.6972 C.3     1  ZINC000487792031   -0.0700
      6 H6         -9.3751    1.8158   62.0956 H       1  ZINC000487792031    0.1100
      7 C7         -9.3523   -0.3180   62.1287 C.2     1  ZINC000487792031    0.5200
      8 O8         -8.8127   -1.1358   62.8435 O.2     1  ZINC000487792031   -0.5300
      9 N9         -9.5600   -0.5942   60.8260 N.am    1  ZINC000487792031   -0.7200
     10 C10        -9.1325   -1.8816   60.2730 C.3     1  ZINC000487792031    0.1500
     11 C11       -10.1117   -2.3247   59.2167 C.ar    1  ZINC000487792031   -0.0500
     12 C12       -10.8074   -1.3837   58.4809 C.ar    1  ZINC000487792031   -0.1200
     13 C13       -11.7057   -1.7901   57.5119 C.ar    1  ZINC000487792031   -0.0200
     14 C14       -11.9079   -3.1375   57.2783 C.ar    1  ZINC000487792031   -0.6700
     15 S15       -13.0532   -3.6556   56.0436 S.o2    1  ZINC000487792031    2.6900
     16 O16       -12.8284   -5.0446   55.8453 O.2     1  ZINC000487792031   -0.9500
     17 O17       -14.3148   -3.1178   56.4157 O.2     1  ZINC000487792031   -0.9500
     18 N18       -12.6234   -2.9060   54.6310 N.am    1  ZINC000487792031   -1.0000
     19 C19       -11.2972   -3.1371   54.0531 C.3     1  ZINC000487792031    0.1200
     20 C20       -11.4485   -3.7118   52.6432 C.3     1  ZINC000487792031   -0.1800
     21 C21       -13.5695   -2.0115   53.9592 C.3     1  ZINC000487792031    0.1100
     22 C22       -14.6703   -2.8403   53.2939 C.3     1  ZINC000487792031   -0.1800
     23 C23       -11.2112   -4.0786   58.0133 C.ar    1  ZINC000487792031   -0.0200
     24 C24       -10.3101   -3.6721   58.9796 C.ar    1  ZINC000487792031   -0.1200
     25 C25       -11.2951    1.0889   62.6784 C.ar    1  ZINC000487792031   -0.0800
     26 C26       -11.9192    2.2459   62.2506 C.ar    1  ZINC000487792031   -0.1100
     27 C27       -13.2994    2.3208   62.2334 C.ar    1  ZINC000487792031   -0.1100
     28 C28       -14.0555    1.2386   62.6434 C.ar    1  ZINC000487792031   -0.1200
     29 C29       -13.4315    0.0814   63.0702 C.ar    1  ZINC000487792031   -0.1200
     30 C30       -12.0513    0.0049   63.0834 C.ar    1  ZINC000487792031   -0.1100
     31 H31        -7.6278    3.3843   67.2390 H       1  ZINC000487792031    0.1000
     32 H32        -7.5268    3.6294   65.3873 H       1  ZINC000487792031    0.1000
     33 H33        -9.7180    2.2557   66.9756 H       1  ZINC000487792031    0.1100
     34 H34       -10.8738    2.4337   64.8058 H       1  ZINC000487792031    0.0700
     35 H35        -9.4787    3.2801   64.0948 H       1  ZINC000487792031    0.0700
     36 H36        -8.2008    1.1184   64.1469 H       1  ZINC000487792031    0.0800
     37 H37        -9.6714    0.3019   64.7292 H       1  ZINC000487792031    0.0700
     38 H38        -9.9926    0.0594   60.2546 H       1  ZINC000487792031    0.4000
     39 H39        -8.1425   -1.7757   59.8292 H       1  ZINC000487792031    0.0800
     40 H40        -9.0960   -2.6250   61.0693 H       1  ZINC000487792031    0.0800
     41 H41       -10.6494   -0.3310   58.6632 H       1  ZINC000487792031    0.1400
     42 H42       -12.2496   -1.0550   56.9374 H       1  ZINC000487792031    0.1400
     43 H43       -10.7526   -2.1942   54.0045 H       1  ZINC000487792031    0.0800
     44 H44       -10.7474   -3.8427   54.6759 H       1  ZINC000487792031    0.0800
     45 H45       -11.9931   -4.6547   52.6916 H       1  ZINC000487792031    0.0600
     46 H46       -11.9983   -3.0063   52.0203 H       1  ZINC000487792031    0.0600
     47 H47       -10.4619   -3.8838   52.2132 H       1  ZINC000487792031    0.0700
     48 H48       -14.0145   -1.3374   54.6912 H       1  ZINC000487792031    0.0900
     49 H49       -13.0444   -1.4299   53.2017 H       1  ZINC000487792031    0.0900
     50 H50       -14.2253   -3.5144   52.5620 H       1  ZINC000487792031    0.0600
     51 H51       -15.1953   -3.4219   54.0515 H       1  ZINC000487792031    0.0600
     52 H52       -15.3741   -2.1748   52.7942 H       1  ZINC000487792031    0.0700
     53 H53       -11.3689   -5.1312   57.8307 H       1  ZINC000487792031    0.1400
     54 H54        -9.7658   -4.4073   59.5538 H       1  ZINC000487792031    0.1400
     55 H55       -11.3284    3.0913   61.9304 H       1  ZINC000487792031    0.1200
     56 H56       -13.7870    3.2249   61.8999 H       1  ZINC000487792031    0.1200
     57 H57       -15.1339    1.2974   62.6305 H       1  ZINC000487792031    0.1200
     58 H58       -14.0222   -0.7640   63.3909 H       1  ZINC000487792031    0.1200
     59 H59       -11.5637   -0.8993   63.4169 H       1  ZINC000487792031    0.1200
@<TRIPOS>BOND
     1     1     2    2
     2     1    31    1
     3     1    32    1
     4     2     3    1
     5     2    33    1
     6     3     4    1
     7     3    34    1
     8     3    35    1
     9     4     5    1
    10     4    36    1
    11     4    37    1
    12     5     6    1
    13     5     7    1
    14     5    25    1
    15     7     8    2
    16     7     9   am
    17     9    10    1
    18     9    38    1
    19    10    11    1
    20    10    39    1
    21    10    40    1
    22    11    24   ar
    23    11    12   ar
    24    12    13   ar
    25    12    41    1
    26    13    14   ar
    27    13    42    1
    28    14    15    1
    29    14    23   ar
    30    15    16    2
    31    15    17    2
    32    15    18   am
    33    18    19    1
    34    18    21    1
    35    19    20    1
    36    19    43    1
    37    19    44    1
    38    20    45    1
    39    20    46    1
    40    20    47    1
    41    21    22    1
    42    21    48    1
    43    21    49    1
    44    22    50    1
    45    22    51    1
    46    22    52    1
    47    23    24   ar
    48    23    53    1
    49    24    54    1
    50    25    30   ar
    51    25    26   ar
    52    26    27   ar
    53    26    55    1
    54    27    28   ar
    55    27    56    1
    56    28    29   ar
    57    28    57    1
    58    29    30   ar
    59    29    58    1
    60    30    59    1
@<TRIPOS>SUBSTRUCTURE
     1 ZINC000487792031        1 TEMP              0 ****  ****    0 ROOT


##########                                Name:    ZINC000848949366
##########                DOCK_Rotatable_Bonds:                   8
##########                         Heavy_Atoms:                  25
##########                    Molecular_Weight:             368.773
##########                DOCK_Rotatable_Bonds:                   8
##########                       Formal_Charge:          0.00999947
##########                     HBond_Acceptors:                   9
##########                        HBond_Donors:                   3
##########                         Heavy_Atoms:                  25
##########                          Grid_Score:          -34.404438
##########                     Grid_vdw_energy:          -33.521580
##########                      Grid_es_energy:           -0.882858
##########           Internal_energy_repulsive:            7.473641

@<TRIPOS>MOLECULE
ZINC000848949366
 42 43 1 0 0
SMALL
USER_CHARGES


@<TRIPOS>ATOM
      1 C1        -16.5241   -2.2523   59.2378 C.3     1  ZINC000848949366   -0.1500
      2 C2        -16.2019   -2.4074   57.7501 C.3     1  ZINC000848949366    0.0600
      3 O3        -14.7847   -2.4425   57.5709 O.3     1  ZINC000848949366   -0.3500
      4 C4        -14.2376   -3.6325   57.2456 C.2     1  ZINC000848949366    0.5400
      5 O5        -14.5639   -4.6374   57.8492 O.2     1  ZINC000848949366   -0.4800
      6 C6        -13.2849   -3.7117   56.2030 C.2     1  ZINC000848949366   -0.2300
      7 C7        -12.0401   -3.2109   56.3553 C.2     1  ZINC000848949366    0.2000
      8 C8        -11.6585   -2.5567   57.6581 C.3     1  ZINC000848949366    0.1000
      9 O9        -10.2158   -2.5991   57.8168 O.3     1  ZINC000848949366   -0.3500
     10 C10        -9.6015   -1.4434   58.1379 C.2     1  ZINC000848949366    0.5100
     11 O11        -9.0949   -0.7625   57.2682 O.2     1  ZINC000848949366   -0.4800
     12 C12        -9.5441   -1.0054   59.5435 C.ar    1  ZINC000848949366   -0.1600
     13 C13        -9.0284   -1.8571   60.5245 C.ar    1  ZINC000848949366   -0.0300
     14 C14        -8.9774   -1.4420   61.8369 C.ar    1  ZINC000848949366   -0.1300
     15 C15        -9.4360   -0.1819   62.1903 C.ar    1  ZINC000848949366    0.0200
     16 Cl16       -9.3663    0.3282   63.8482 Cl      1  ZINC000848949366   -0.0500
     17 C17        -9.9480    0.6705   61.2299 C.ar    1  ZINC000848949366   -0.1500
     18 C18       -10.0013    0.2708   59.9038 C.ar    1  ZINC000848949366    0.1900
     19 O19       -10.5035    1.1059   58.9603 O.3     1  ZINC000848949366   -0.4700
     20 N20       -11.1211   -3.2884   55.3481 N.am    1  ZINC000848949366   -0.6400
     21 C21       -11.3690   -3.8505   54.1584 C.2     1  ZINC000848949366    0.7100
     22 O22       -10.4862   -3.8722   53.3230 O.2     1  ZINC000848949366   -0.5600
     23 N23       -12.5652   -4.3934   53.8570 N.am    1  ZINC000848949366   -0.7100
     24 C24       -13.6246   -4.3666   54.8795 C.3     1  ZINC000848949366    0.2000
     25 H25       -13.9299   -5.3948   55.0740 H       1  ZINC000848949366    0.0900
     26 C26       -14.8274   -3.6249   54.2931 C.3     1  ZINC000848949366   -0.1700
     27 H27       -17.6052   -2.2256   59.3745 H       1  ZINC000848949366    0.0800
     28 H28       -16.1088   -3.0958   59.7893 H       1  ZINC000848949366    0.0700
     29 H29       -16.0879   -1.3250   59.6092 H       1  ZINC000848949366    0.0700
     30 H30       -16.6382   -3.3347   57.3787 H       1  ZINC000848949366    0.0700
     31 H31       -16.6172   -1.5640   57.1985 H       1  ZINC000848949366    0.0700
     32 H32       -11.9934   -1.5194   57.6556 H       1  ZINC000848949366    0.1100
     33 H33       -12.1307   -3.0888   58.4839 H       1  ZINC000848949366    0.1000
     34 H34        -8.6708   -2.8396   60.2538 H       1  ZINC000848949366    0.1500
     35 H35        -8.5788   -2.1010   62.5940 H       1  ZINC000848949366    0.1500
     36 H36       -10.3034    1.6504   61.5126 H       1  ZINC000848949366    0.1500
     37 H37       -10.6247    0.6934   58.0941 H       1  ZINC000848949366    0.4000
     38 H38       -10.2394   -2.9151   55.5032 H       1  ZINC000848949366    0.4300
     39 H39       -12.7234   -4.7953   52.9885 H       1  ZINC000848949366    0.4400
     40 H40       -15.1768   -4.1464   53.4021 H       1  ZINC000848949366    0.0700
     41 H41       -15.6284   -3.5906   55.0316 H       1  ZINC000848949366    0.0700
     42 H42       -14.5340   -2.6091   54.0280 H       1  ZINC000848949366    0.0700
@<TRIPOS>BOND
     1     1     2    1
     2     1    27    1
     3     1    28    1
     4     1    29    1
     5     2     3    1
     6     2    30    1
     7     2    31    1
     8     3     4    1
     9     4     5    2
    10     4     6    1
    11     6    24    1
    12     6     7    2
    13     7     8    1
    14     7    20    1
    15     8     9    1
    16     8    32    1
    17     8    33    1
    18     9    10    1
    19    10    11    2
    20    10    12    1
    21    12    18   ar
    22    12    13   ar
    23    13    14   ar
    24    13    34    1
    25    14    15   ar
    26    14    35    1
    27    15    16    1
    28    15    17   ar
    29    17    18   ar
    30    17    36    1
    31    18    19    1
    32    19    37    1
    33    20    21   am
    34    20    38    1
    35    21    22    2
    36    21    23   am
    37    23    24    1
    38    23    39    1
    39    24    25    1
    40    24    26    1
    41    26    40    1
    42    26    41    1
    43    26    42    1
@<TRIPOS>SUBSTRUCTURE
     1 ZINC000848949366        1 TEMP              0 ****  ****    0 ROOT


##########                                Name:    ZINC000623695407
##########                DOCK_Rotatable_Bonds:                  10
##########                         Heavy_Atoms:                  27
##########                    Molecular_Weight:             368.479
##########                DOCK_Rotatable_Bonds:                  10
##########                       Formal_Charge:           0.0299989
##########                     HBond_Acceptors:                   6
##########                        HBond_Donors:                   2
##########                         Heavy_Atoms:                  27
##########                          Grid_Score:          -34.392895
##########                     Grid_vdw_energy:          -32.806427
##########                      Grid_es_energy:           -1.586467
##########           Internal_energy_repulsive:           13.089909

@<TRIPOS>MOLECULE
ZINC000623695407
 55 57 1 0 0
SMALL
USER_CHARGES


@<TRIPOS>ATOM
      1 C1        -15.1424   -4.1336   54.8734 C.3     1  ZINC000623695407    0.0300
      2 O2        -14.7328   -4.8573   56.0356 O.3     1  ZINC000623695407   -0.3200
      3 C3        -13.5856   -4.4528   56.6417 C.ar    1  ZINC000623695407    0.1300
      4 C4        -13.4498   -3.1389   57.0657 C.ar    1  ZINC000623695407   -0.2100
      5 C5        -12.2828   -2.7304   57.6820 C.ar    1  ZINC000623695407   -0.0600
      6 C6        -11.2507   -3.6298   57.8760 C.ar    1  ZINC000623695407   -0.1100
      7 C7         -9.9786   -3.1814   58.5481 C.3     1  ZINC000623695407    0.0600
      8 N8        -10.3073   -2.4326   59.7685 N.3     1  ZINC000623695407   -0.4600
      9 C9         -9.7357   -3.0870   60.9601 C.3     1  ZINC000623695407    0.0000
     10 C10        -9.3584   -1.6916   61.4769 C.3     1  ZINC000623695407   -0.1300
     11 C11        -9.3524   -1.3297   59.9851 C.3     1  ZINC000623695407    0.0100
     12 H12        -8.3878   -1.4895   59.5034 H       1  ZINC000623695407    0.0900
     13 C13        -9.9388    0.0525   59.6909 C.3     1  ZINC000623695407    0.1600
     14 N14       -10.2959    0.1398   58.2728 N.am    1  ZINC000623695407   -0.7400
     15 C15        -9.3817    0.5508   57.3717 C.2     1  ZINC000623695407    0.7100
     16 O16        -8.2611    0.8505   57.7360 O.2     1  ZINC000623695407   -0.5900
     17 N17        -9.7098    0.6294   56.0669 N.am    1  ZINC000623695407   -0.7400
     18 C18        -8.7165    1.0779   55.0877 C.3     1  ZINC000623695407    0.1700
     19 H19        -7.7270    0.7362   55.3912 H       1  ZINC000623695407    0.0900
     20 C20        -9.0572    0.4980   53.7135 C.3     1  ZINC000623695407   -0.1600
     21 C21        -8.7277    2.6061   55.0135 C.3     1  ZINC000623695407   -0.0900
     22 C22        -7.6367    3.0718   54.0840 C.ar    1  ZINC000623695407   -0.0300
     23 C23        -6.3378    3.2360   54.5403 C.ar    1  ZINC000623695407   -0.1700
     24 C24        -5.3635    3.6648   53.6588 C.ar    1  ZINC000623695407    0.1000
     25 N25        -5.6581    3.9172   52.3985 N.ar    1  ZINC000623695407   -0.4900
     26 C26        -6.8822    3.7721   51.9299 C.ar    1  ZINC000623695407    0.1000
     27 C27        -7.9069    3.3410   52.7510 C.ar    1  ZINC000623695407   -0.1700
     28 C28       -11.3839   -4.9400   57.4547 C.ar    1  ZINC000623695407   -0.0700
     29 C29       -12.5508   -5.3547   56.8426 C.ar    1  ZINC000623695407   -0.1500
     30 H30       -16.0701   -4.5579   54.4893 H       1  ZINC000623695407    0.1000
     31 H31       -15.3022   -3.0874   55.1344 H       1  ZINC000623695407    0.0600
     32 H32       -14.3675   -4.2034   54.1100 H       1  ZINC000623695407    0.0600
     33 H33       -14.2554   -2.4360   56.9138 H       1  ZINC000623695407    0.1300
     34 H34       -12.1765   -1.7077   58.0123 H       1  ZINC000623695407    0.1200
     35 H35        -9.3779   -4.0531   58.8075 H       1  ZINC000623695407    0.0600
     36 H36        -9.4154   -2.5408   57.8695 H       1  ZINC000623695407    0.0700
     37 H37       -10.4792   -3.5921   61.5768 H       1  ZINC000623695407    0.0900
     38 H38        -8.8734   -3.7159   60.7386 H       1  ZINC000623695407    0.0700
     39 H39       -10.1439   -1.2013   62.0521 H       1  ZINC000623695407    0.1000
     40 H40        -8.3788   -1.6416   61.9523 H       1  ZINC000623695407    0.0800
     41 H41       -10.8296    0.2065   60.3000 H       1  ZINC000623695407    0.0700
     42 H42        -9.2001    0.8184   59.9274 H       1  ZINC000623695407    0.0700
     43 H43       -11.1902   -0.0983   57.9823 H       1  ZINC000623695407    0.3900
     44 H44       -10.6034    0.3891   55.7761 H       1  ZINC000623695407    0.3900
     45 H45        -8.3182    0.8318   52.9850 H       1  ZINC000623695407    0.0700
     46 H46        -9.0492   -0.5906   53.7664 H       1  ZINC000623695407    0.0700
     47 H47       -10.0467    0.8398   53.4100 H       1  ZINC000623695407    0.0600
     48 H48        -9.6936    2.9446   54.6385 H       1  ZINC000623695407    0.1000
     49 H49        -8.5590    3.0195   56.0078 H       1  ZINC000623695407    0.0800
     50 H50        -6.0905    3.0317   55.5715 H       1  ZINC000623695407    0.1300
     51 H51        -4.3493    3.7952   54.0062 H       1  ZINC000623695407    0.1500
     52 H52        -7.0855    3.9888   50.8916 H       1  ZINC000623695407    0.1600
     53 H53        -8.9074    3.2238   52.3614 H       1  ZINC000623695407    0.1400
     54 H54       -10.5763   -5.6406   57.6077 H       1  ZINC000623695407    0.1200
     55 H55       -12.6544   -6.3782   56.5138 H       1  ZINC000623695407    0.1300
@<TRIPOS>BOND
     1     1     2    1
     2     1    30    1
     3     1    31    1
     4     1    32    1
     5     2     3    1
     6     3    29   ar
     7     3     4   ar
     8     4     5   ar
     9     4    33    1
    10     5     6   ar
    11     5    34    1
    12     6     7    1
    13     6    28   ar
    14     7     8    1
    15     7    35    1
    16     7    36    1
    17     8    11    1
    18     8     9    1
    19     9    10    1
    20     9    37    1
    21     9    38    1
    22    10    11    1
    23    10    39    1
    24    10    40    1
    25    11    12    1
    26    11    13    1
    27    13    14    1
    28    13    41    1
    29    13    42    1
    30    14    15   am
    31    14    43    1
    32    15    16    2
    33    15    17   am
    34    17    18    1
    35    17    44    1
    36    18    19    1
    37    18    20    1
    38    18    21    1
    39    20    45    1
    40    20    46    1
    41    20    47    1
    42    21    22    1
    43    21    48    1
    44    21    49    1
    45    22    27   ar
    46    22    23   ar
    47    23    24   ar
    48    23    50    1
    49    24    25   ar
    50    24    51    1
    51    25    26   ar
    52    26    27   ar
    53    26    52    1
    54    27    53    1
    55    28    29   ar
    56    28    54    1
    57    29    55    1
@<TRIPOS>SUBSTRUCTURE
     1 ZINC000623695407        1 TEMP              0 ****  ****    0 ROOT


##########                                Name:    ZINC000266467123
##########                DOCK_Rotatable_Bonds:                   9
##########                         Heavy_Atoms:                  25
##########                    Molecular_Weight:             337.421
##########                DOCK_Rotatable_Bonds:                   9
##########                       Formal_Charge:                0.02
##########                     HBond_Acceptors:                   5
##########                        HBond_Donors:                   3
##########                         Heavy_Atoms:                  25
##########                          Grid_Score:          -34.371689
##########                     Grid_vdw_energy:          -33.272110
##########                      Grid_es_energy:           -1.099577
##########           Internal_energy_repulsive:           11.178812

@<TRIPOS>MOLECULE
ZINC000266467123
 48 50 1 0 0
SMALL
USER_CHARGES


@<TRIPOS>ATOM
      1 C1        -14.4361   -5.2989   56.9720 C.3     1  <0>        -0.1600
      2 C2        -13.0616   -4.6713   56.7311 C.3     1  <0>         0.1500
      3 H3        -12.3356   -5.4566   56.5207 H       1  <0>         0.1200
      4 N4        -12.6472   -3.9303   57.9250 N.am    1  <0>        -0.7300
      5 C5        -11.3395   -3.8286   58.2350 C.2     1  <0>         0.7100
      6 O6        -10.5037   -4.3508   57.5231 O.2     1  <0>        -0.5900
      7 N7        -10.9585   -3.1482   59.3342 N.am    1  <0>        -0.7100
      8 C8         -9.5370   -3.0363   59.6702 C.3     1  <0>         0.1100
      9 H9         -8.8779   -3.7442   59.1675 H       1  <0>         0.1400
     10 C10        -9.1791   -2.6319   61.1017 C.3     1  <0>        -0.1900
     11 C11        -8.9861   -1.6374   59.9541 C.3     1  <0>        -0.1500
     12 H12        -7.9647   -1.4250   59.6387 H       1  <0>         0.1200
     13 C13        -9.9618   -0.4621   59.8663 C.3     1  <0>        -0.0500
     14 C14        -9.5644    0.4363   58.7235 C.ar    1  <0>        -0.0800
     15 C15        -8.9677   -0.1002   57.5978 C.ar    1  <0>        -0.1100
     16 C16        -8.6033    0.7239   56.5496 C.ar    1  <0>        -0.1200
     17 C17        -8.8358    2.0843   56.6266 C.ar    1  <0>        -0.1200
     18 C18        -9.4335    2.6207   57.7519 C.ar    1  <0>        -0.1200
     19 C19        -9.8019    1.7960   58.7985 C.ar    1  <0>        -0.1200
     20 C20       -13.1382   -3.7299   55.5568 C.2     1  <0>         0.5100
     21 O21       -13.1400   -2.5310   55.7399 O.2     1  <0>        -0.5100
     22 N22       -13.2046   -4.2204   54.3033 N.am    1  <0>        -0.6700
     23 C23       -13.2756   -3.3463   53.2129 C.ar    1  <0>         0.1400
     24 C24       -12.1111   -2.8464   52.6448 C.ar    1  <0>        -0.1400
     25 C25       -12.1847   -1.9837   51.5687 C.ar    1  <0>        -0.1000
     26 C26       -13.4160   -1.6174   51.0572 C.ar    1  <0>        -0.1300
     27 C27       -14.5774   -2.1131   51.6209 C.ar    1  <0>        -0.1000
     28 C28       -14.5105   -2.9813   52.6930 C.ar    1  <0>        -0.1200
     29 H29       -14.7445   -5.8504   56.0839 H       1  <0>         0.0700
     30 H30       -14.3808   -5.9798   57.8215 H       1  <0>         0.0800
     31 H31       -15.1622   -4.5137   57.1826 H       1  <0>         0.0700
     32 H32       -13.3140   -3.5126   58.4923 H       1  <0>         0.4100
     33 H33       -11.6255   -2.7326   59.9028 H       1  <0>         0.4000
     34 H34       -10.0013   -2.4491   61.7935 H       1  <0>         0.1000
     35 H35        -8.2844   -3.0734   61.5407 H       1  <0>         0.1000
     36 H36       -10.9706   -0.8392   59.6982 H       1  <0>         0.0800
     37 H37        -9.9356    0.1023   60.7983 H       1  <0>         0.0700
     38 H38        -8.7860   -1.1630   57.5376 H       1  <0>         0.1200
     39 H39        -8.1363    0.3048   55.6704 H       1  <0>         0.1200
     40 H40        -8.5505    2.7283   55.8079 H       1  <0>         0.1200
     41 H41        -9.6149    3.6836   57.8123 H       1  <0>         0.1200
     42 H42       -10.2687    2.2150   59.6775 H       1  <0>         0.1200
     43 H43       -13.2031   -5.1792   54.1569 H       1  <0>         0.4100
     44 H44       -11.1492   -3.1316   53.0443 H       1  <0>         0.1300
     45 H45       -11.2794   -1.5947   51.1265 H       1  <0>         0.1300
     46 H46       -13.4710   -0.9425   50.2159 H       1  <0>         0.1200
     47 H47       -15.5376   -1.8245   51.2197 H       1  <0>         0.1300
     48 H48       -15.4179   -3.3681   53.1329 H       1  <0>         0.1400
@<TRIPOS>BOND
     1     1     2    1
     2     1    29    1
     3     1    30    1
     4     1    31    1
     5     2     3    1
     6     2     4    1
     7     2    20    1
     8     4     5   am
     9     4    32    1
    10     5     6    2
    11     5     7   am
    12     7     8    1
    13     7    33    1
    14     8     9    1
    15     8    11    1
    16     8    10    1
    17    10    11    1
    18    10    34    1
    19    10    35    1
    20    11    12    1
    21    11    13    1
    22    13    14    1
    23    13    36    1
    24    13    37    1
    25    14    19   ar
    26    14    15   ar
    27    15    16   ar
    28    15    38    1
    29    16    17   ar
    30    16    39    1
    31    17    18   ar
    32    17    40    1
    33    18    19   ar
    34    18    41    1
    35    19    42    1
    36    20    21    2
    37    20    22   am
    38    22    23    1
    39    22    43    1
    40    23    28   ar
    41    23    24   ar
    42    24    25   ar
    43    24    44    1
    44    25    26   ar
    45    25    45    1
    46    26    27   ar
    47    26    46    1
    48    27    28   ar
    49    27    47    1
    50    28    48    1
@<TRIPOS>SUBSTRUCTURE
     1 <0>         1 TEMP              0 ****  ****    0 ROOT


##########                                Name:    ZINC000015179664
##########                DOCK_Rotatable_Bonds:                   8
##########                         Heavy_Atoms:                  25
##########                    Molecular_Weight:             361.422
##########                DOCK_Rotatable_Bonds:                   8
##########                       Formal_Charge:        -2.23517e-07
##########                     HBond_Acceptors:                   8
##########                        HBond_Donors:                   1
##########                         Heavy_Atoms:                  25
##########                          Grid_Score:          -34.367088
##########                     Grid_vdw_energy:          -34.579643
##########                      Grid_es_energy:            0.212557
##########           Internal_energy_repulsive:           21.248915

@<TRIPOS>MOLECULE
ZINC000015179664
 44 45 1 0 0
SMALL
USER_CHARGES


@<TRIPOS>ATOM
      1 C1        -14.1888   -5.2424   57.1829 C.3     1  ZINC000015179664   -0.1600
      2 C2        -12.8354   -4.7200   56.6966 C.3     1  ZINC000015179664    0.1800
      3 H3        -12.1269   -5.5461   56.6376 H       1  ZINC000015179664    0.1200
      4 C4        -12.3203   -3.6842   57.6624 C.ar    1  ZINC000015179664   -0.1000
      5 C5        -13.0328   -2.5183   57.8705 C.ar    1  ZINC000015179664   -0.0700
      6 C6        -12.5601   -1.5682   58.7567 C.ar    1  ZINC000015179664   -0.1200
      7 C7        -11.3753   -1.7843   59.4347 C.ar    1  ZINC000015179664   -0.0500
      8 C8        -10.6631   -2.9510   59.2274 C.ar    1  ZINC000015179664   -0.0400
      9 N9         -9.3940   -3.1824   59.9532 N.pl3   1  ZINC000015179664    0.0300
     10 O10        -8.9772   -2.3450   60.7332 O.2     1  ZINC000015179664   -0.1600
     11 O11        -8.7666   -4.2103   59.7704 O.2     1  ZINC000015179664   -0.1500
     12 C12       -11.1378   -3.9029   58.3447 C.ar    1  ZINC000015179664   -0.0400
     13 N13       -12.9929   -4.1161   55.3711 N.am    1  ZINC000015179664   -0.6100
     14 C14       -14.3315   -3.9267   54.8067 C.3     1  ZINC000015179664    0.0600
     15 C15       -11.9063   -3.7347   54.6710 C.2     1  ZINC000015179664    0.5200
     16 O16       -10.7982   -3.8902   55.1389 O.2     1  ZINC000015179664   -0.5200
     17 C17       -12.0681   -3.1152   53.3068 C.3     1  ZINC000015179664   -0.1500
     18 C18       -10.7007   -2.6728   52.7821 C.3     1  ZINC000015179664    0.1300
     19 N19       -10.3471   -1.3786   53.3705 N.am    1  ZINC000015179664   -0.7300
     20 C20        -9.4069   -0.6080   52.7886 C.2     1  ZINC000015179664    0.5800
     21 O21        -8.8507   -0.9878   51.7757 O.2     1  ZINC000015179664   -0.5300
     22 C22        -9.0530    0.6932   53.3789 C.2     1  ZINC000015179664   -0.1500
     23 C23        -9.6259    1.1839   54.5105 C.2     1  ZINC000015179664   -0.2200
     24 S24        -8.9781    2.7104   54.9045 S.3     1  ZINC000015179664    0.1900
     25 C25        -7.9059    2.6977   53.5150 C.2     1  ZINC000015179664   -0.2300
     26 C26        -8.0574    1.5771   52.8191 C.2     1  ZINC000015179664   -0.0900
     27 H27       -14.0717   -5.6917   58.1691 H       1  ZINC000015179664    0.0800
     28 H28       -14.8974   -4.4162   57.2419 H       1  ZINC000015179664    0.0600
     29 H29       -14.5614   -5.9916   56.4843 H       1  ZINC000015179664    0.0700
     30 H30       -13.9585   -2.3493   57.3407 H       1  ZINC000015179664    0.1500
     31 H31       -13.1164   -0.6568   58.9187 H       1  ZINC000015179664    0.1500
     32 H32       -11.0058   -1.0418   60.1264 H       1  ZINC000015179664    0.1600
     33 H33       -10.5815   -4.8142   58.1826 H       1  ZINC000015179664    0.1600
     34 H34       -14.7303   -2.9658   55.1318 H       1  ZINC000015179664    0.0600
     35 H35       -14.2731   -3.9464   53.7185 H       1  ZINC000015179664    0.0800
     36 H36       -14.9871   -4.7271   55.1500 H       1  ZINC000015179664    0.0800
     37 H37       -12.4996   -3.8472   52.6242 H       1  ZINC000015179664    0.1000
     38 H38       -12.7278   -2.2504   53.3764 H       1  ZINC000015179664    0.1000
     39 H39        -9.9494   -3.4137   53.0558 H       1  ZINC000015179664    0.0800
     40 H40       -10.7407   -2.5797   51.6968 H       1  ZINC000015179664    0.0800
     41 H41       -10.7899   -1.0762   54.1789 H       1  ZINC000015179664    0.4000
     42 H42       -10.3882    0.6753   55.0821 H       1  ZINC000015179664    0.1700
     43 H43        -7.2161    3.4895   53.2632 H       1  ZINC000015179664    0.1700
     44 H44        -7.4989    1.3530   51.9223 H       1  ZINC000015179664    0.1600
@<TRIPOS>BOND
     1     1     2    1
     2     1    27    1
     3     1    28    1
     4     1    29    1
     5     2     3    1
     6     2     4    1
     7     2    13    1
     8     4    12   ar
     9     4     5   ar
    10     5     6   ar
    11     5    30    1
    12     6     7   ar
    13     6    31    1
    14     7     8   ar
    15     7    32    1
    16     8     9    1
    17     8    12   ar
    18     9    10    2
    19     9    11    2
    20    12    33    1
    21    13    14    1
    22    13    15   am
    23    14    34    1
    24    14    35    1
    25    14    36    1
    26    15    16    2
    27    15    17    1
    28    17    18    1
    29    17    37    1
    30    17    38    1
    31    18    19    1
    32    18    39    1
    33    18    40    1
    34    19    20   am
    35    19    41    1
    36    20    21    2
    37    20    22    1
    38    22    26    1
    39    22    23    2
    40    23    24    1
    41    23    42    1
    42    24    25    1
    43    25    26    2
    44    25    43    1
    45    26    44    1
@<TRIPOS>SUBSTRUCTURE
     1 ZINC000015179664        1 TEMP              0 ****  ****    0 ROOT


##########                                Name:    ZINC000484424341
##########                DOCK_Rotatable_Bonds:                   7
##########                         Heavy_Atoms:                  26
##########                    Molecular_Weight:             359.425
##########                DOCK_Rotatable_Bonds:                   7
##########                       Formal_Charge:          -0.0100009
##########                     HBond_Acceptors:                   7
##########                        HBond_Donors:                   1
##########                         Heavy_Atoms:                  26
##########                          Grid_Score:          -34.356861
##########                     Grid_vdw_energy:          -34.227604
##########                      Grid_es_energy:           -0.129258
##########           Internal_energy_repulsive:           13.698445

@<TRIPOS>MOLECULE
ZINC000484424341
 51 53 1 0 0
SMALL
USER_CHARGES


@<TRIPOS>ATOM
      1 C1         -9.6428    4.6759   49.4469 C.3     1  ZINC000484424341    0.0300
      2 O2         -8.7820    3.6239   49.8878 O.3     1  ZINC000484424341   -0.3800
      3 C3         -8.8164    3.3974   51.2984 C.3     1  ZINC000484424341    0.1300
      4 H4         -9.7636    3.7563   51.7008 H       1  ZINC000484424341    0.0700
      5 C5         -7.6619    4.1490   51.9639 C.3     1  ZINC000484424341   -0.1700
      6 C6         -8.6804    1.9221   51.5736 C.ar    1  ZINC000484424341   -0.0700
      7 C7         -7.5439    1.2461   51.1698 C.ar    1  ZINC000484424341   -0.1000
      8 C8         -7.4149   -0.1080   51.4205 C.ar    1  ZINC000484424341   -0.1000
      9 C9         -8.4215   -0.7895   52.0752 C.ar    1  ZINC000484424341   -0.1100
     10 C10        -9.5651   -0.1133   52.4825 C.ar    1  ZINC000484424341    0.1400
     11 N11       -10.5855   -0.7997   53.1457 N.am    1  ZINC000484424341   -0.6400
     12 C12       -11.3013   -1.7373   52.4938 C.2     1  ZINC000484424341    0.5100
     13 O13       -11.0594   -1.9855   51.3306 O.2     1  ZINC000484424341   -0.4900
     14 C14       -12.3920   -2.4710   53.2027 C.2     1  ZINC000484424341    0.5200
     15 O15       -13.4166   -2.7508   52.6154 O.2     1  ZINC000484424341   -0.5200
     16 N16       -12.2385   -2.8223   54.4948 N.am    1  ZINC000484424341   -0.5800
     17 C17       -13.2269   -3.5436   55.3099 C.3     1  ZINC000484424341    0.1100
     18 C18       -12.6067   -3.7472   56.7083 C.3     1  ZINC000484424341   -0.1500
     19 C19       -11.0842   -3.6289   56.4338 C.3     1  ZINC000484424341    0.1500
     20 H20       -10.6780   -4.5733   56.0711 H       1  ZINC000484424341    0.1100
     21 N21       -10.3685   -3.1774   57.6296 N.am    1  ZINC000484424341   -0.6100
     22 C22       -10.0371   -1.7769   57.9172 C.3     1  ZINC000484424341    0.1000
     23 C23        -9.7005   -1.7341   59.4242 C.3     1  ZINC000484424341   -0.1300
     24 C24        -9.2456   -3.1884   59.6871 C.3     1  ZINC000484424341   -0.1600
     25 C25        -9.9358   -3.9923   58.6073 C.2     1  ZINC000484424341    0.5200
     26 O26       -10.0724   -5.1972   58.6185 O.2     1  ZINC000484424341   -0.5200
     27 C27       -11.0491   -2.5528   55.3230 C.3     1  ZINC000484424341    0.0900
     28 C28        -9.6888    1.2478   52.2341 C.ar    1  ZINC000484424341   -0.1300
     29 H29        -9.3528    5.6091   49.9296 H       1  ZINC000484424341    0.0400
     30 H30        -9.5589    4.7848   48.3655 H       1  ZINC000484424341    0.0900
     31 H31       -10.6733    4.4359   49.7090 H       1  ZINC000484424341    0.0400
     32 H32        -6.7147    3.7901   51.5614 H       1  ZINC000484424341    0.0700
     33 H33        -7.7602    5.2161   51.7648 H       1  ZINC000484424341    0.0600
     34 H34        -7.6882    3.9762   53.0399 H       1  ZINC000484424341    0.0700
     35 H35        -6.7551    1.7765   50.6571 H       1  ZINC000484424341    0.1300
     36 H36        -6.5259   -0.6330   51.1032 H       1  ZINC000484424341    0.1300
     37 H37        -8.3204   -1.8469   52.2703 H       1  ZINC000484424341    0.1300
     38 H38       -10.7787   -0.6014   54.0754 H       1  ZINC000484424341    0.4200
     39 H39       -14.1405   -2.9547   55.3917 H       1  ZINC000484424341    0.0800
     40 H40       -13.4460   -4.5107   54.8571 H       1  ZINC000484424341    0.0800
     41 H41       -12.9367   -2.9668   57.3939 H       1  ZINC000484424341    0.0900
     42 H42       -12.8524   -4.7347   57.0991 H       1  ZINC000484424341    0.0900
     43 H43        -9.1742   -1.4650   57.3289 H       1  ZINC000484424341    0.0800
     44 H44       -10.8921   -1.1355   57.7033 H       1  ZINC000484424341    0.0800
     45 H45        -8.8922   -1.0305   59.6236 H       1  ZINC000484424341    0.0900
     46 H46       -10.5835   -1.4888   60.0143 H       1  ZINC000484424341    0.0800
     47 H47        -8.1626   -3.2716   59.5967 H       1  ZINC000484424341    0.1100
     48 H48        -9.5735   -3.5183   60.6729 H       1  ZINC000484424341    0.1000
     49 H49       -10.1397   -2.6494   54.7299 H       1  ZINC000484424341    0.0900
     50 H50       -11.1147   -1.5558   55.7586 H       1  ZINC000484424341    0.0900
     51 H51       -10.5761    1.7765   52.5496 H       1  ZINC000484424341    0.1300
@<TRIPOS>BOND
     1     1     2    1
     2     1    29    1
     3     1    30    1
     4     1    31    1
     5     2     3    1
     6     3     4    1
     7     3     5    1
     8     3     6    1
     9     5    32    1
    10     5    33    1
    11     5    34    1
    12     6    28   ar
    13     6     7   ar
    14     7     8   ar
    15     7    35    1
    16     8     9   ar
    17     8    36    1
    18     9    10   ar
    19     9    37    1
    20    10    11    1
    21    10    28   ar
    22    11    12   am
    23    11    38    1
    24    12    13    2
    25    12    14    1
    26    14    15    2
    27    14    16   am
    28    16    27    1
    29    16    17    1
    30    17    18    1
    31    17    39    1
    32    17    40    1
    33    18    19    1
    34    18    41    1
    35    18    42    1
    36    19    20    1
    37    19    21    1
    38    19    27    1
    39    21    25   am
    40    21    22    1
    41    22    23    1
    42    22    43    1
    43    22    44    1
    44    23    24    1
    45    23    45    1
    46    23    46    1
    47    24    25    1
    48    24    47    1
    49    24    48    1
    50    25    26    2
    51    27    49    1
    52    27    50    1
    53    28    51    1
@<TRIPOS>SUBSTRUCTURE
     1 ZINC000484424341        1 TEMP              0 ****  ****    0 ROOT


##########                                Name:    ZINC000355549087
##########                DOCK_Rotatable_Bonds:                   9
##########                         Heavy_Atoms:                  23
##########                    Molecular_Weight:             336.415
##########                DOCK_Rotatable_Bonds:                   9
##########                       Formal_Charge:        -9.53674e-07
##########                     HBond_Acceptors:                   8
##########                        HBond_Donors:                   4
##########                         Heavy_Atoms:                  23
##########                          Grid_Score:          -34.348629
##########                     Grid_vdw_energy:          -34.651405
##########                      Grid_es_energy:            0.302776
##########           Internal_energy_repulsive:           13.601139

@<TRIPOS>MOLECULE
ZINC000355549087
 43 44 1 0 0
SMALL
USER_CHARGES


@<TRIPOS>ATOM
      1 C1         -1.7914   -0.6871   44.3063 C.3     1  <0>        -0.1500
      2 C2         -0.9809    0.2195   45.2348 C.3     1  <0>        -0.1200
      3 C3         -1.9335    1.0173   46.1276 C.3     1  <0>        -0.1000
      4 H4         -2.6797    0.3464   46.5534 H       1  <0>         0.0800
      5 C5         -2.6316    2.0940   45.2947 C.3     1  <0>        -0.1500
      6 C6         -1.1402    1.6797   47.2559 C.3     1  <0>         0.0900
      7 H7         -0.1908    1.1604   47.3860 H       1  <0>         0.1000
      8 O8         -0.8937    3.0478   46.9252 O.3     1  <0>        -0.3500
      9 C9         -0.1736    3.7675   47.9280 C.3     1  <0>         0.0200
     10 C10        -1.9319    1.6071   48.5362 C.2     1  <0>         0.5100
     11 O11        -1.3965    1.2384   49.5600 O.2     1  <0>        -0.4800
     12 N12        -3.2348    1.9518   48.5434 N.am    1  <0>        -0.6200
     13 C13        -3.9644    1.8864   49.7243 C.2     1  <0>         0.2400
     14 N14        -5.0063    1.1403   49.9089 N.2     1  <0>        -0.5000
     15 C15        -5.5838    1.2000   51.1016 C.2     1  <0>         0.1700
     16 C16        -6.7849    0.4021   51.4574 C.2     1  <0>        -0.1100
     17 C17        -6.9929   -0.9164   51.1695 C.2     1  <0>         0.0600
     18 N18        -8.2036   -1.2782   51.6600 N.pl3   1  <0>        -0.5400
     19 C19        -8.7807   -0.1866   52.2683 C.2     1  <0>        -0.0600
     20 C20       -10.0924   -0.1584   52.9249 C.2     1  <0>         0.5900
     21 N21       -10.2188    0.3772   54.1552 N.am    1  <0>        -0.8600
     22 O22       -11.0663   -0.6187   52.3586 O.2     1  <0>        -0.5300
     23 C23        -7.9144    0.8651   52.1583 C.2     1  <0>        -0.0600
     24 C24        -4.9874    2.0458   51.9610 C.2     1  <0>        -0.3200
     25 S25        -3.6088    2.7740   51.1410 S.3     1  <0>         0.2500
     26 H26        -1.1127   -1.2554   43.6702 H       1  <0>         0.0600
     27 H27        -2.3916   -1.3742   44.9024 H       1  <0>         0.0600
     28 H28        -2.4470   -0.0773   43.6845 H       1  <0>         0.0600
     29 H29        -0.3253   -0.3902   45.8565 H       1  <0>         0.0600
     30 H30        -0.3805    0.9067   44.6386 H       1  <0>         0.0700
     31 H31        -1.8853    2.7648   44.8689 H       1  <0>         0.0700
     32 H32        -3.1967    1.6221   44.4908 H       1  <0>         0.0600
     33 H33        -3.3103    2.6623   45.9307 H       1  <0>         0.0500
     34 H34        -0.1135    4.8192   47.6478 H       1  <0>         0.0900
     35 H35        -0.6905    3.6750   48.8833 H       1  <0>         0.0500
     36 H36         0.8322    3.3573   48.0180 H       1  <0>         0.0500
     37 H37        -3.6633    2.2456   47.7242 H       1  <0>         0.4200
     38 H38        -6.3080   -1.5622   50.6400 H       1  <0>         0.1800
     39 H39        -8.5986   -2.1615   51.5931 H       1  <0>         0.4200
     40 H40       -11.0864    0.3969   54.5887 H       1  <0>         0.4000
     41 H41        -9.4424    0.7431   54.6070 H       1  <0>         0.4100
     42 H42        -8.0702    1.8659   52.5333 H       1  <0>         0.1500
     43 H43        -5.2972    2.2414   52.9768 H       1  <0>         0.1800
@<TRIPOS>BOND
     1     1     2    1
     2     1    26    1
     3     1    27    1
     4     1    28    1
     5     2     3    1
     6     2    29    1
     7     2    30    1
     8     3     4    1
     9     3     5    1
    10     3     6    1
    11     5    31    1
    12     5    32    1
    13     5    33    1
    14     6     7    1
    15     6     8    1
    16     6    10    1
    17     8     9    1
    18     9    34    1
    19     9    35    1
    20     9    36    1
    21    10    11    2
    22    10    12   am
    23    12    13    1
    24    12    37    1
    25    13    25    1
    26    13    14    2
    27    14    15    1
    28    15    16    1
    29    15    24    2
    30    16    23    1
    31    16    17    2
    32    17    18    1
    33    17    38    1
    34    18    19    1
    35    18    39    1
    36    19    20    1
    37    19    23    2
    38    20    21   am
    39    20    22    2
    40    21    40    1
    41    21    41    1
    42    23    42    1
    43    24    25    1
    44    24    43    1
@<TRIPOS>SUBSTRUCTURE
     1 <0>         1 TEMP              0 ****  ****    0 ROOT


##########                                Name:    ZINC000847397179
##########                DOCK_Rotatable_Bonds:                   9
##########                         Heavy_Atoms:                  25
##########                    Molecular_Weight:             350.461
##########                DOCK_Rotatable_Bonds:                   9
##########                       Formal_Charge:          0.00999979
##########                     HBond_Acceptors:                   7
##########                        HBond_Donors:                   2
##########                         Heavy_Atoms:                  25
##########                          Grid_Score:          -34.347725
##########                     Grid_vdw_energy:          -33.472538
##########                      Grid_es_energy:           -0.875185
##########           Internal_energy_repulsive:           87.321838

@<TRIPOS>MOLECULE
ZINC000847397179
 55 56 1 0 0
SMALL
USER_CHARGES


@<TRIPOS>ATOM
      1 C1         -8.7527    4.3390   57.4808 C.3     1  ZINC000847397179   -0.1500
      2 C2         -7.5906    3.3439   57.4622 C.3     1  ZINC000847397179   -0.1000
      3 H3         -7.1304    3.3042   58.4494 H       1  ZINC000847397179    0.0900
      4 C4         -6.5515    3.7927   56.4328 C.3     1  ZINC000847397179   -0.0200
      5 C5         -5.2451    3.0899   56.6985 C.2     1  ZINC000847397179    0.0100
      6 C6         -4.3324    2.7396   55.7724 C.2     1  ZINC000847397179   -0.0500
      7 N7         -3.3048    2.1296   56.4399 N.pl3   1  ZINC000847397179   -0.5700
      8 C8         -3.6256    2.1285   57.7516 C.2     1  ZINC000847397179    0.1800
      9 N9         -4.7850    2.7089   57.8993 N.2     1  ZINC000847397179   -0.4900
     10 C10        -8.1059    1.9768   57.0926 C.2     1  ZINC000847397179    0.5200
     11 O11        -7.5175    1.3093   56.2686 O.2     1  ZINC000847397179   -0.5300
     12 N12        -9.2205    1.4959   57.6780 N.am    1  ZINC000847397179   -0.7400
     13 C13        -9.7224    0.1676   57.3175 C.3     1  ZINC000847397179    0.1200
     14 C14        -9.2997   -0.8442   58.3845 C.3     1  ZINC000847397179    0.1500
     15 H15        -8.2142   -0.9416   58.3860 H       1  ZINC000847397179    0.0800
     16 C16        -9.7746   -0.3677   59.7608 C.3     1  ZINC000847397179   -0.1300
     17 C17        -9.4723   -1.4474   60.8024 C.3     1  ZINC000847397179   -0.1200
     18 C18       -10.2306   -2.7283   60.4466 C.3     1  ZINC000847397179   -0.1400
     19 C19        -9.7609   -3.2316   59.0781 C.3     1  ZINC000847397179    0.1100
     20 N20        -9.9109   -2.1488   58.0958 N.am    1  ZINC000847397179   -0.5900
     21 C21       -10.6000   -2.3473   56.9548 C.2     1  ZINC000847397179    0.6500
     22 O22       -10.7169   -1.4439   56.1506 O.2     1  ZINC000847397179   -0.5500
     23 O23       -11.1590   -3.5466   56.7059 O.3     1  ZINC000847397179   -0.3600
     24 C24       -12.5969   -3.5750   56.5062 C.3     1  ZINC000847397179    0.1400
     25 C25       -12.9223   -3.1351   55.0775 C.3     1  ZINC000847397179   -0.1800
     26 C26       -13.1153   -4.9966   56.7327 C.3     1  ZINC000847397179   -0.1400
     27 C27       -13.2685   -2.6233   57.4984 C.3     1  ZINC000847397179   -0.1800
     28 H28        -9.2129    4.3788   56.4936 H       1  ZINC000847397179    0.0500
     29 H29        -9.4930    4.0193   58.2143 H       1  ZINC000847397179    0.0500
     30 H30        -8.3800    5.3279   57.7481 H       1  ZINC000847397179    0.1000
     31 H31        -6.9011    3.5433   55.4310 H       1  ZINC000847397179    0.0800
     32 H32        -6.4064    4.8704   56.5091 H       1  ZINC000847397179    0.0800
     33 H33        -4.3986    2.9072   54.7075 H       1  ZINC000847397179    0.1800
     34 H34        -2.4970    1.7660   56.0446 H       1  ZINC000847397179    0.4200
     35 H35        -3.0209    1.7188   58.5472 H       1  ZINC000847397179    0.2100
     36 H36        -9.6905    2.0293   58.3379 H       1  ZINC000847397179    0.3900
     37 H37       -10.8102    0.1952   57.2535 H       1  ZINC000847397179    0.0800
     38 H38        -9.3091   -0.1275   56.3530 H       1  ZINC000847397179    0.1000
     39 H39        -9.2527    0.5514   60.0276 H       1  ZINC000847397179    0.0800
     40 H40       -10.8481   -0.1814   59.7309 H       1  ZINC000847397179    0.0700
     41 H41        -8.4015   -1.6509   60.8143 H       1  ZINC000847397179    0.0700
     42 H42        -9.7869   -1.1007   61.7867 H       1  ZINC000847397179    0.0700
     43 H43       -10.0334   -3.4895   61.2014 H       1  ZINC000847397179    0.0800
     44 H44       -11.2999   -2.5198   60.4102 H       1  ZINC000847397179    0.0700
     45 H45        -8.7131   -3.5261   59.1369 H       1  ZINC000847397179    0.0700
     46 H46       -10.3664   -4.0860   58.7755 H       1  ZINC000847397179    0.0900
     47 H47       -12.4439   -3.8130   54.3706 H       1  ZINC000847397179    0.0600
     48 H48       -14.0018   -3.1563   54.9276 H       1  ZINC000847397179    0.0700
     49 H49       -12.5530   -2.1223   54.9162 H       1  ZINC000847397179    0.0900
     50 H50       -12.8835   -5.3101   57.7506 H       1  ZINC000847397179    0.0700
     51 H51       -14.1947   -5.0179   56.5828 H       1  ZINC000847397179    0.0800
     52 H52       -12.6369   -5.6747   56.0259 H       1  ZINC000847397179    0.0700
     53 H53       -12.8992   -1.6104   57.3370 H       1  ZINC000847397179    0.0900
     54 H54       -14.3479   -2.6446   57.3485 H       1  ZINC000847397179    0.0700
     55 H55       -13.0367   -2.9367   58.5162 H       1  ZINC000847397179    0.0600
@<TRIPOS>BOND
     1     1     2    1
     2     1    28    1
     3     1    29    1
     4     1    30    1
     5     2     3    1
     6     2     4    1
     7     2    10    1
     8     4     5    1
     9     4    31    1
    10     4    32    1
    11     5     9    1
    12     5     6    2
    13     6     7    1
    14     6    33    1
    15     7     8    1
    16     7    34    1
    17     8     9    2
    18     8    35    1
    19    10    11    2
    20    10    12   am
    21    12    13    1
    22    12    36    1
    23    13    14    1
    24    13    37    1
    25    13    38    1
    26    14    15    1
    27    14    20    1
    28    14    16    1
    29    16    17    1
    30    16    39    1
    31    16    40    1
    32    17    18    1
    33    17    41    1
    34    17    42    1
    35    18    19    1
    36    18    43    1
    37    18    44    1
    38    19    20    1
    39    19    45    1
    40    19    46    1
    41    20    21   am
    42    21    22    2
    43    21    23    1
    44    23    24    1
    45    24    25    1
    46    24    26    1
    47    24    27    1
    48    25    47    1
    49    25    48    1
    50    25    49    1
    51    26    50    1
    52    26    51    1
    53    26    52    1
    54    27    53    1
    55    27    54    1
    56    27    55    1
@<TRIPOS>SUBSTRUCTURE
     1 ZINC000847397179        1 TEMP              0 ****  ****    0 ROOT


##########                                Name:    ZINC000188380122
##########                DOCK_Rotatable_Bonds:                   6
##########                         Heavy_Atoms:                  27
##########                    Molecular_Weight:             396.433
##########                DOCK_Rotatable_Bonds:                   6
##########                       Formal_Charge:           0.0299998
##########                     HBond_Acceptors:                   8
##########                        HBond_Donors:                   1
##########                         Heavy_Atoms:                  27
##########                          Grid_Score:          -34.341629
##########                     Grid_vdw_energy:          -33.709637
##########                      Grid_es_energy:           -0.631991
##########           Internal_energy_repulsive:           10.882858

@<TRIPOS>MOLECULE
ZINC000188380122
 46 49 1 0 0
SMALL
USER_CHARGES


@<TRIPOS>ATOM
      1 O1        -10.5925   -5.1175   57.8978 O.2     1  ZINC000188380122   -0.5200
      2 C2        -11.1100   -4.0908   57.5118 C.2     1  ZINC000188380122    0.5200
      3 C3        -12.2033   -4.1413   56.4758 C.3     1  ZINC000188380122   -0.0700
      4 C4        -11.6933   -3.5679   55.1788 C.2     1  ZINC000188380122    0.0900
      5 C5        -11.9300   -4.1551   54.0009 C.2     1  ZINC000188380122   -0.2400
      6 S6        -11.1730   -3.1846   52.7394 S.3     1  ZINC000188380122    0.1000
      7 C7        -10.5978   -2.0535   53.9616 C.2     1  ZINC000188380122    0.1100
      8 C8         -9.7993   -0.8374   53.6973 C.ar    1  ZINC000188380122   -0.0200
      9 C9         -9.2726   -0.6078   52.4258 C.ar    1  ZINC000188380122   -0.0400
     10 C10        -8.5287    0.5293   52.1856 C.ar    1  ZINC000188380122   -0.1200
     11 C11        -8.3043    1.4403   53.2022 C.ar    1  ZINC000188380122   -0.0600
     12 C12        -8.8238    1.2183   54.4654 C.ar    1  ZINC000188380122   -0.1800
     13 C13        -8.5747    2.2163   55.5667 C.3     1  ZINC000188380122    0.5100
     14 F14        -7.3972    2.9225   55.2986 F       1  ZINC000188380122   -0.1700
     15 F15        -9.6487    3.1102   55.6378 F       1  ZINC000188380122   -0.1700
     16 F16        -8.4472    1.5427   56.7863 F       1  ZINC000188380122   -0.1700
     17 C17        -9.5740    0.0884   54.7171 C.ar    1  ZINC000188380122   -0.0500
     18 N18       -10.9935   -2.4577   55.1346 N.2     1  ZINC000188380122   -0.4300
     19 N19       -10.7114   -2.9050   58.0134 N.am    1  ZINC000188380122   -0.7200
     20 C20        -9.6486   -2.8559   59.0205 C.3     1  ZINC000188380122    0.1300
     21 H21        -8.7697   -3.4353   58.7377 H       1  ZINC000188380122    0.1200
     22 C22       -10.1402   -3.1388   60.4512 C.3     1  ZINC000188380122   -0.1800
     23 C23        -9.1735   -2.0371   60.9007 C.3     1  ZINC000188380122    0.0900
     24 H24        -8.1689   -2.4255   61.0682 H       1  ZINC000188380122    0.1200
     25 O25        -9.6099   -1.2555   61.9842 O.3     1  ZINC000188380122   -0.3700
     26 C26       -10.7128   -0.3841   61.8157 C.3     1  ZINC000188380122    0.0700
     27 C27       -10.5614    0.4465   60.5422 C.3     1  ZINC000188380122   -0.1600
     28 C28       -10.5127   -0.5035   59.3415 C.3     1  ZINC000188380122   -0.1100
     29 C29        -9.3195   -1.4287   59.5033 C.3     1  ZINC000188380122   -0.1500
     30 H30        -8.3963   -1.0188   59.0935 H       1  ZINC000188380122    0.0900
     31 H31       -12.5090   -5.1760   56.3203 H       1  ZINC000188380122    0.1100
     32 H32       -13.0574   -3.5580   56.8200 H       1  ZINC000188380122    0.1100
     33 H33       -12.4884   -5.0669   53.8490 H       1  ZINC000188380122    0.1800
     34 H34        -9.4465   -1.3186   51.6315 H       1  ZINC000188380122    0.1500
     35 H35        -8.1205    0.7084   51.2019 H       1  ZINC000188380122    0.1400
     36 H36        -7.7208    2.3283   53.0092 H       1  ZINC000188380122    0.1500
     37 H37        -9.9790   -0.0836   55.7034 H       1  ZINC000188380122    0.1400
     38 H38       -11.1280   -2.0842   57.7074 H       1  ZINC000188380122    0.4000
     39 H39       -11.1901   -2.8925   60.6105 H       1  ZINC000188380122    0.0900
     40 H40        -9.8753   -4.1307   60.8175 H       1  ZINC000188380122    0.0800
     41 H41       -11.6281   -0.9725   61.7529 H       1  ZINC000188380122    0.0500
     42 H42       -10.7757    0.2844   62.6742 H       1  ZINC000188380122    0.1000
     43 H43       -11.4125    1.1202   60.4415 H       1  ZINC000188380122    0.0800
     44 H44        -9.6382    1.0241   60.5895 H       1  ZINC000188380122    0.0800
     45 H45       -11.4294   -1.0919   59.3038 H       1  ZINC000188380122    0.0700
     46 H46       -10.4085    0.0737   58.4228 H       1  ZINC000188380122    0.0800
@<TRIPOS>BOND
     1     1     2    2
     2     2     3    1
     3     2    19   am
     4     3     4    1
     5     3    31    1
     6     3    32    1
     7     4    18    1
     8     4     5    2
     9     5     6    1
    10     5    33    1
    11     6     7    1
    12     7     8    1
    13     7    18    2
    14     8    17   ar
    15     8     9   ar
    16     9    10   ar
    17     9    34    1
    18    10    11   ar
    19    10    35    1
    20    11    12   ar
    21    11    36    1
    22    12    13    1
    23    12    17   ar
    24    13    14    1
    25    13    15    1
    26    13    16    1
    27    17    37    1
    28    19    20    1
    29    19    38    1
    30    20    21    1
    31    20    29    1
    32    20    22    1
    33    22    23    1
    34    22    39    1
    35    22    40    1
    36    23    24    1
    37    23    29    1
    38    23    25    1
    39    25    26    1
    40    26    27    1
    41    26    41    1
    42    26    42    1
    43    27    28    1
    44    27    43    1
    45    27    44    1
    46    28    29    1
    47    28    45    1
    48    28    46    1
    49    29    30    1
@<TRIPOS>SUBSTRUCTURE
     1 ZINC000188380122        1 TEMP              0 ****  ****    0 ROOT


##########                                Name:    ZINC000471198073
##########                DOCK_Rotatable_Bonds:                  12
##########                         Heavy_Atoms:                  30
##########                    Molecular_Weight:             409.528
##########                DOCK_Rotatable_Bonds:                  12
##########                       Formal_Charge:          -0.0399998
##########                     HBond_Acceptors:                   6
##########                        HBond_Donors:                   3
##########                         Heavy_Atoms:                  30
##########                          Grid_Score:          -34.286804
##########                     Grid_vdw_energy:          -32.775593
##########                      Grid_es_energy:           -1.511211
##########           Internal_energy_repulsive:           24.011837

@<TRIPOS>MOLECULE
ZINC000471198073
 61 62 1 0 0
SMALL
USER_CHARGES


@<TRIPOS>ATOM
      1 C1         -9.9939    1.7757   64.3803 C.3     1  ZINC000471198073   -0.1400
      2 C2        -11.2666    1.5766   63.5547 C.3     1  ZINC000471198073   -0.1100
      3 C3        -11.4833    2.7916   62.6505 C.3     1  ZINC000471198073   -0.1500
      4 C4        -11.1270    0.3383   62.7073 C.2     1  ZINC000471198073    0.5200
      5 O5        -11.9814   -0.5217   62.7447 O.2     1  ZINC000471198073   -0.5200
      6 N6        -10.0528    0.1865   61.9076 N.am    1  ZINC000471198073   -0.6700
      7 C7         -9.9232   -0.9632   61.1207 C.ar    1  ZINC000471198073    0.1600
      8 C8         -9.0135   -1.9507   61.4770 C.ar    1  ZINC000471198073   -0.1500
      9 C9         -8.8849   -3.0868   60.7008 C.ar    1  ZINC000471198073   -0.0800
     10 C10        -9.6601   -3.2447   59.5686 C.ar    1  ZINC000471198073   -0.1300
     11 C11       -10.5719   -2.2601   59.2061 C.ar    1  ZINC000471198073    0.1500
     12 N12       -11.3555   -2.4201   58.0603 N.am    1  ZINC000471198073   -0.6400
     13 C13       -12.6719   -2.6852   58.1759 C.2     1  ZINC000471198073    0.5100
     14 O14       -13.1768   -2.7849   59.2751 O.2     1  ZINC000471198073   -0.5000
     15 C15       -13.5095   -2.8562   56.9512 C.2     1  ZINC000471198073    0.5100
     16 O16       -14.3164   -3.7606   56.8892 O.2     1  ZINC000471198073   -0.5100
     17 N17       -13.3691   -2.0061   55.9147 N.am    1  ZINC000471198073   -0.7000
     18 C18       -14.1894   -2.1748   54.7127 C.3     1  ZINC000471198073    0.1200
     19 C19       -13.3463   -1.8703   53.4729 C.3     1  ZINC000471198073   -0.0900
     20 H20       -13.1229   -0.8039   53.4384 H       1  ZINC000471198073    0.0800
     21 C21       -12.0395   -2.6633   53.5373 C.3     1  ZINC000471198073   -0.0800
     22 C22       -10.8721   -1.7198   53.4018 C.ar    1  ZINC000471198073   -0.0800
     23 C23        -9.9657   -1.8854   52.3714 C.ar    1  ZINC000471198073   -0.1200
     24 C24        -8.8949   -1.0201   52.2471 C.ar    1  ZINC000471198073   -0.1200
     25 C25        -8.7309    0.0112   53.1530 C.ar    1  ZINC000471198073   -0.1200
     26 C26        -9.6379    0.1773   54.1828 C.ar    1  ZINC000471198073   -0.1200
     27 C27       -10.7111   -0.6854   54.3045 C.ar    1  ZINC000471198073   -0.1200
     28 C28       -14.1237   -2.2693   52.2170 C.3     1  ZINC000471198073   -0.1000
     29 C29       -15.5348   -1.6818   52.2826 C.3     1  ZINC000471198073   -0.1600
     30 C30       -13.4040   -1.7305   50.9789 C.3     1  ZINC000471198073   -0.1700
     31 C31       -10.7072   -1.1207   59.9869 C.ar    1  ZINC000471198073   -0.1400
     32 H32       -10.0948    2.6713   64.9932 H       1  ZINC000471198073    0.0700
     33 H33        -9.8395    0.9101   65.0245 H       1  ZINC000471198073    0.0600
     34 H34        -9.1407    1.8876   63.7113 H       1  ZINC000471198073    0.0600
     35 H35       -12.1198    1.4647   64.2237 H       1  ZINC000471198073    0.1000
     36 H36       -10.6300    2.9035   61.9815 H       1  ZINC000471198073    0.0600
     37 H37       -12.3899    2.6498   62.0623 H       1  ZINC000471198073    0.0600
     38 H38       -11.5842    3.6873   63.2635 H       1  ZINC000471198073    0.0700
     39 H39        -9.3694    0.8742   61.8777 H       1  ZINC000471198073    0.4100
     40 H40        -8.4056   -1.8302   62.3616 H       1  ZINC000471198073    0.1300
     41 H41        -8.1767   -3.8528   60.9800 H       1  ZINC000471198073    0.1300
     42 H42        -9.5572   -4.1337   58.9640 H       1  ZINC000471198073    0.1400
     43 H43       -10.9520   -2.3404   57.1818 H       1  ZINC000471198073    0.4200
     44 H44       -12.7250   -1.2826   55.9647 H       1  ZINC000471198073    0.4200
     45 H45       -14.5526   -3.2013   54.6619 H       1  ZINC000471198073    0.0700
     46 H46       -15.0372   -1.4910   54.7525 H       1  ZINC000471198073    0.0800
     47 H47       -11.9770   -3.1836   54.4931 H       1  ZINC000471198073    0.0800
     48 H48       -12.0153   -3.3902   52.7255 H       1  ZINC000471198073    0.0800
     49 H49       -10.0937   -2.6911   51.6637 H       1  ZINC000471198073    0.1200
     50 H50        -8.1862   -1.1499   51.4425 H       1  ZINC000471198073    0.1200
     51 H51        -7.8940    0.6869   53.0563 H       1  ZINC000471198073    0.1200
     52 H52        -9.5097    0.9829   54.8906 H       1  ZINC000471198073    0.1200
     53 H53       -11.4198   -0.5557   55.1091 H       1  ZINC000471198073    0.1200
     54 H54       -14.1849   -3.3560   52.1575 H       1  ZINC000471198073    0.0800
     55 H55       -15.4779   -0.5940   52.2429 H       1  ZINC000471198073    0.0600
     56 H56       -16.1196   -2.0461   51.4379 H       1  ZINC000471198073    0.0600
     57 H57       -16.0125   -1.9869   53.2136 H       1  ZINC000471198073    0.0600
     58 H58       -12.3609   -2.0461   50.9989 H       1  ZINC000471198073    0.0600
     59 H59       -13.8843   -2.1199   50.0813 H       1  ZINC000471198073    0.0600
     60 H60       -13.4542   -0.6417   50.9747 H       1  ZINC000471198073    0.0700
     61 H61       -11.4150   -0.3542   59.7075 H       1  ZINC000471198073    0.1400
@<TRIPOS>BOND
     1     1     2    1
     2     1    32    1
     3     1    33    1
     4     1    34    1
     5     2     3    1
     6     2     4    1
     7     2    35    1
     8     3    36    1
     9     3    37    1
    10     3    38    1
    11     4     5    2
    12     4     6   am
    13     6     7    1
    14     6    39    1
    15     7    31   ar
    16     7     8   ar
    17     8     9   ar
    18     8    40    1
    19     9    10   ar
    20     9    41    1
    21    10    11   ar
    22    10    42    1
    23    11    12    1
    24    11    31   ar
    25    12    13   am
    26    12    43    1
    27    13    14    2
    28    13    15    1
    29    15    16    2
    30    15    17   am
    31    17    18    1
    32    17    44    1
    33    18    19    1
    34    18    45    1
    35    18    46    1
    36    19    20    1
    37    19    21    1
    38    19    28    1
    39    21    22    1
    40    21    47    1
    41    21    48    1
    42    22    27   ar
    43    22    23   ar
    44    23    24   ar
    45    23    49    1
    46    24    25   ar
    47    24    50    1
    48    25    26   ar
    49    25    51    1
    50    26    27   ar
    51    26    52    1
    52    27    53    1
    53    28    29    1
    54    28    30    1
    55    28    54    1
    56    29    55    1
    57    29    56    1
    58    29    57    1
    59    30    58    1
    60    30    59    1
    61    30    60    1
    62    31    61    1
@<TRIPOS>SUBSTRUCTURE
     1 ZINC000471198073        1 TEMP              0 ****  ****    0 ROOT


##########                                Name:    ZINC001058079801
##########                DOCK_Rotatable_Bonds:                   7
##########                         Heavy_Atoms:                  24
##########                    Molecular_Weight:             349.457
##########                DOCK_Rotatable_Bonds:                   7
##########                       Formal_Charge:           0.0200001
##########                     HBond_Acceptors:                   8
##########                        HBond_Donors:                   0
##########                         Heavy_Atoms:                  24
##########                          Grid_Score:          -34.278347
##########                     Grid_vdw_energy:          -34.431015
##########                      Grid_es_energy:            0.152669
##########           Internal_energy_repulsive:           14.153164

@<TRIPOS>MOLECULE
ZINC001058079801
 47 49 1 0 0
SMALL
USER_CHARGES


@<TRIPOS>ATOM
      1 C1         -9.3648   -0.7750   62.0085 C.3     1  ZINC001058079801   -0.1500
      2 C2        -10.0643   -1.7258   61.0350 C.3     1  ZINC001058079801   -0.1200
      3 C3         -9.0603   -2.2137   59.9887 C.3     1  ZINC001058079801   -0.0300
      4 C4         -9.7214   -3.2304   59.0939 C.2     1  ZINC001058079801    0.2900
      5 N5         -9.5459   -4.5059   59.2826 N.2     1  ZINC001058079801   -0.4800
      6 S6        -10.4541   -5.2808   58.0731 S.3     1  ZINC001058079801    0.1900
      7 C7        -11.0272   -3.8153   57.3714 C.2     1  ZINC001058079801    0.2700
      8 N8        -11.8664   -3.6755   56.2808 N.3     1  ZINC001058079801   -0.4300
      9 C9        -11.0963   -3.4828   55.0454 C.3     1  ZINC001058079801    0.0700
     10 C10       -12.0466   -3.4780   53.8458 C.3     1  ZINC001058079801   -0.1300
     11 C11       -13.0675   -2.3492   54.0143 C.3     1  ZINC001058079801    0.1300
     12 N12       -14.0157   -2.3762   52.8979 N.am    1  ZINC001058079801   -0.6100
     13 C13       -15.1830   -3.2597   52.9494 C.3     1  ZINC001058079801    0.0700
     14 C14       -13.8141   -1.5879   51.8233 C.2     1  ZINC001058079801    0.5200
     15 O15       -12.8485   -0.8553   51.7813 O.2     1  ZINC001058079801   -0.5300
     16 C16       -14.7885   -1.6169   50.6741 C.3     1  ZINC001058079801   -0.0600
     17 C17       -14.2932   -0.7156   49.5727 C.2     1  ZINC001058079801   -0.1900
     18 C18       -14.0622    0.6179   49.6267 C.2     1  ZINC001058079801   -0.0400
     19 O19       -13.6317    0.9781   48.4095 O.3     1  ZINC001058079801    0.1000
     20 N20       -13.5824    0.0324   47.6575 N.2     1  ZINC001058079801   -0.3600
     21 C21       -13.9561   -1.0673   48.2454 C.2     1  ZINC001058079801    0.0000
     22 C22       -13.8224   -2.5468   55.3317 C.3     1  ZINC001058079801   -0.1200
     23 C23       -12.8205   -2.5787   56.4882 C.3     1  ZINC001058079801    0.0400
     24 N24       -10.4972   -2.8575   58.1026 N.2     1  ZINC001058079801   -0.5300
     25 H25       -10.0800   -0.4273   62.7540 H       1  ZINC001058079801    0.0600
     26 H26        -8.5484   -1.2995   62.5051 H       1  ZINC001058079801    0.0600
     27 H27        -8.9676    0.0790   61.4600 H       1  ZINC001058079801    0.0600
     28 H28       -10.4615   -2.5799   61.5835 H       1  ZINC001058079801    0.0700
     29 H29       -10.8807   -1.2013   60.5384 H       1  ZINC001058079801    0.0700
     30 H30        -8.7203   -1.3690   59.3896 H       1  ZINC001058079801    0.1000
     31 H31        -8.2069   -2.6710   60.4895 H       1  ZINC001058079801    0.0900
     32 H32       -10.5660   -2.5317   55.0926 H       1  ZINC001058079801    0.0600
     33 H33       -10.3770   -4.2944   54.9356 H       1  ZINC001058079801    0.1000
     34 H34       -11.4764   -3.3193   52.9305 H       1  ZINC001058079801    0.0800
     35 H35       -12.5671   -4.4340   53.7900 H       1  ZINC001058079801    0.0800
     36 H36       -12.5504   -1.3898   54.0300 H       1  ZINC001058079801    0.1000
     37 H37       -16.0188   -2.7313   53.4081 H       1  ZINC001058079801    0.0600
     38 H38       -15.4552   -3.5617   51.9380 H       1  ZINC001058079801    0.0800
     39 H39       -14.9438   -4.1438   53.5405 H       1  ZINC001058079801    0.0800
     40 H40       -14.8762   -2.6362   50.2978 H       1  ZINC001058079801    0.1100
     41 H41       -15.7639   -1.2707   51.0159 H       1  ZINC001058079801    0.1100
     42 H42       -14.1980    1.2635   50.4817 H       1  ZINC001058079801    0.2200
     43 H43       -14.0056   -2.0520   47.8045 H       1  ZINC001058079801    0.1900
     44 H44       -14.5209   -1.7229   55.4780 H       1  ZINC001058079801    0.0900
     45 H45       -14.3708   -3.4882   55.2993 H       1  ZINC001058079801    0.0800
     46 H46       -13.3537   -2.7336   57.4263 H       1  ZINC001058079801    0.1000
     47 H47       -12.2823   -1.6318   56.5285 H       1  ZINC001058079801    0.0700
@<TRIPOS>BOND
     1     1     2    1
     2     1    25    1
     3     1    26    1
     4     1    27    1
     5     2     3    1
     6     2    28    1
     7     2    29    1
     8     3     4    1
     9     3    30    1
    10     3    31    1
    11     4    24    1
    12     4     5    2
    13     5     6    1
    14     6     7    1
    15     7     8    1
    16     7    24    2
    17     8    23    1
    18     8     9    1
    19     9    10    1
    20     9    32    1
    21     9    33    1
    22    10    11    1
    23    10    34    1
    24    10    35    1
    25    11    12    1
    26    11    22    1
    27    11    36    1
    28    12    13    1
    29    12    14   am
    30    13    37    1
    31    13    38    1
    32    13    39    1
    33    14    15    2
    34    14    16    1
    35    16    17    1
    36    16    40    1
    37    16    41    1
    38    17    21    1
    39    17    18    2
    40    18    19    1
    41    18    42    1
    42    19    20    1
    43    20    21    2
    44    21    43    1
    45    22    23    1
    46    22    44    1
    47    22    45    1
    48    23    46    1
    49    23    47    1
@<TRIPOS>SUBSTRUCTURE
     1 ZINC001058079801        1 TEMP              0 ****  ****    0 ROOT


##########                                Name:    ZINC000432833246
##########                DOCK_Rotatable_Bonds:                   5
##########                         Heavy_Atoms:                  25
##########                    Molecular_Weight:             400.318
##########                DOCK_Rotatable_Bonds:                   5
##########                       Formal_Charge:        -3.20375e-07
##########                     HBond_Acceptors:                   4
##########                        HBond_Donors:                   1
##########                         Heavy_Atoms:                  25
##########                          Grid_Score:          -34.272537
##########                     Grid_vdw_energy:          -33.675049
##########                      Grid_es_energy:           -0.597489
##########           Internal_energy_repulsive:            6.901435

@<TRIPOS>MOLECULE
ZINC000432833246
 47 51 1 0 0
SMALL
USER_CHARGES


@<TRIPOS>ATOM
      1 O1         -6.1205    3.6761   53.1663 O.2     1  ZINC000432833246   -0.5200
      2 C2         -6.9699    2.8375   53.3812 C.2     1  ZINC000432833246    0.5200
      3 C3         -7.7212    2.6793   54.6847 C.3     1  ZINC000432833246   -0.1500
      4 C4         -8.9355    1.7951   54.3176 C.3     1  ZINC000432833246   -0.1100
      5 H5         -9.8027    2.4070   54.0694 H       1  ZINC000432833246    0.1000
      6 C6         -9.2636    0.8185   55.4488 C.3     1  ZINC000432833246    0.1300
      7 N7        -10.4317    0.0160   55.0777 N.pl3   1  ZINC000432833246   -0.7200
      8 C8        -10.8601   -1.0095   55.9069 C.ar    1  ZINC000432833246    0.2800
      9 C9        -11.7105   -2.0322   55.4235 C.ar    1  ZINC000432833246   -0.1500
     10 C10       -12.1498   -2.0474   54.0924 C.ar    1  ZINC000432833246   -0.0700
     11 C11       -12.9677   -3.0492   53.6639 C.ar    1  ZINC000432833246   -0.1300
     12 C12       -13.3740   -4.0595   54.5321 C.ar    1  ZINC000432833246   -0.0600
     13 C13       -12.9656   -4.0747   55.8315 C.ar    1  ZINC000432833246   -0.0800
     14 Br14      -13.5322   -5.4592   56.9883 Br      1  ZINC000432833246   -0.0300
     15 C15       -12.1204   -3.0572   56.3091 C.ar    1  ZINC000432833246    0.1900
     16 N16       -11.7036   -3.0479   57.5802 N.ar    1  ZINC000432833246   -0.5000
     17 C17       -10.9145   -2.1049   58.0402 C.ar    1  ZINC000432833246    0.2400
     18 C18       -10.4808   -2.1520   59.4826 C.3     1  ZINC000432833246   -0.1100
     19 C19        -9.4552   -3.2166   59.8775 C.3     1  ZINC000432833246   -0.1700
     20 C20        -9.0404   -1.7458   59.8009 C.3     1  ZINC000432833246   -0.1600
     21 C21       -10.4644   -1.0685   57.2341 C.ar    1  ZINC000432833246   -0.2700
     22 C22        -8.4136    1.0447   53.0723 C.3     1  ZINC000432833246    0.1100
     23 N23        -7.3849    1.9171   52.4938 N.am    1  ZINC000432833246   -0.5900
     24 C24        -6.8700    1.7947   51.1278 C.3     1  ZINC000432833246    0.0800
     25 C25        -5.5298    1.0811   50.9392 C.3     1  ZINC000432833246   -0.1900
     26 C26        -6.8287    0.3952   50.5111 C.3     1  ZINC000432833246   -0.1900
     27 H27        -7.0971    2.1813   55.4268 H       1  ZINC000432833246    0.1100
     28 H28        -8.0535    3.6496   55.0537 H       1  ZINC000432833246    0.1000
     29 H29        -8.4109    0.1614   55.6202 H       1  ZINC000432833246    0.0800
     30 H30        -9.4808    1.3770   56.3594 H       1  ZINC000432833246    0.0700
     31 H31       -10.9055    0.2021   54.2520 H       1  ZINC000432833246    0.4000
     32 H32       -11.8418   -1.2688   53.4102 H       1  ZINC000432833246    0.1300
     33 H33       -13.3056   -3.0599   52.6381 H       1  ZINC000432833246    0.1400
     34 H34       -14.0232   -4.8427   54.1697 H       1  ZINC000432833246    0.1400
     35 H35       -11.2486   -1.8971   60.2130 H       1  ZINC000432833246    0.1300
     36 H36        -9.5484   -3.6623   60.8678 H       1  ZINC000432833246    0.1000
     37 H37        -9.0942   -3.8828   59.0940 H       1  ZINC000432833246    0.1000
     38 H38        -8.4065   -1.4445   58.9669 H       1  ZINC000432833246    0.0900
     39 H39        -8.8606   -1.2240   60.7408 H       1  ZINC000432833246    0.1000
     40 H40        -9.8154   -0.3073   57.6411 H       1  ZINC000432833246    0.1400
     41 H41        -7.9817    0.0870   53.3625 H       1  ZINC000432833246    0.0800
     42 H42        -9.2220    0.8934   52.3569 H       1  ZINC000432833246    0.0900
     43 H43        -7.0931    2.6305   50.4646 H       1  ZINC000432833246    0.1300
     44 H44        -4.8708    1.4474   50.1520 H       1  ZINC000432833246    0.1000
     45 H45        -5.0312    0.7027   51.8316 H       1  ZINC000432833246    0.1300
     46 H46        -7.1845   -0.4346   51.1217 H       1  ZINC000432833246    0.0900
     47 H47        -7.0242    0.3102   49.4421 H       1  ZINC000432833246    0.1000
@<TRIPOS>BOND
     1     1     2    2
     2     2    23   am
     3     2     3    1
     4     3     4    1
     5     3    27    1
     6     3    28    1
     7     4     5    1
     8     4     6    1
     9     4    22    1
    10     6     7    1
    11     6    29    1
    12     6    30    1
    13     7     8    1
    14     7    31    1
    15     8    21   ar
    16     8     9   ar
    17     9    15   ar
    18     9    10   ar
    19    10    11   ar
    20    10    32    1
    21    11    12   ar
    22    11    33    1
    23    12    13   ar
    24    12    34    1
    25    13    14    1
    26    13    15   ar
    27    15    16   ar
    28    16    17   ar
    29    17    18    1
    30    17    21   ar
    31    18    20    1
    32    18    19    1
    33    18    35    1
    34    19    20    1
    35    19    36    1
    36    19    37    1
    37    20    38    1
    38    20    39    1
    39    21    40    1
    40    22    23    1
    41    22    41    1
    42    22    42    1
    43    23    24    1
    44    24    26    1
    45    24    25    1
    46    24    43    1
    47    25    26    1
    48    25    44    1
    49    25    45    1
    50    26    46    1
    51    26    47    1
@<TRIPOS>SUBSTRUCTURE
     1 ZINC000432833246        1 TEMP              0 ****  ****    0 ROOT


##########                                Name:    ZINC001492779707
##########                DOCK_Rotatable_Bonds:                   8
##########                         Heavy_Atoms:                  27
##########                    Molecular_Weight:             374.483
##########                DOCK_Rotatable_Bonds:                   8
##########                       Formal_Charge:           0.0199998
##########                     HBond_Acceptors:                   7
##########                        HBond_Donors:                   0
##########                         Heavy_Atoms:                  27
##########                          Grid_Score:          -34.269463
##########                     Grid_vdw_energy:          -33.774693
##########                      Grid_es_energy:           -0.494769
##########           Internal_energy_repulsive:            8.711044

@<TRIPOS>MOLECULE
ZINC001492779707
 57 59 1 0 0
SMALL
USER_CHARGES


@<TRIPOS>ATOM
      1 C1        -13.7715   -5.5440   56.5244 C.3     1  ZINC001492779707   -0.0700
      2 C2        -13.3030   -4.6628   55.3954 C.2     1  ZINC001492779707    0.1800
      3 N3        -13.9279   -4.4491   54.2721 N.2     1  ZINC001492779707   -0.2900
      4 N4        -13.2471   -3.6459   53.5349 N.2     1  ZINC001492779707   -0.3100
      5 C5        -12.1424   -3.3012   54.1535 C.2     1  ZINC001492779707    0.3400
      6 N6        -11.1602   -2.4501   53.6724 N.3     1  ZINC001492779707   -0.4600
      7 C7        -10.6843   -2.8876   52.3533 C.3     1  ZINC001492779707    0.0300
      8 C8        -11.6424   -1.0633   53.6248 C.3     1  ZINC001492779707    0.1100
      9 C9        -10.8101   -0.2101   54.5470 C.ar    1  ZINC001492779707   -0.0400
     10 C10        -9.5898    0.2801   54.1207 C.ar    1  ZINC001492779707   -0.1300
     11 C11        -8.8237    1.0634   54.9645 C.ar    1  ZINC001492779707   -0.0800
     12 C12        -9.2763    1.3577   56.2358 C.ar    1  ZINC001492779707   -0.2100
     13 C13       -10.5007    0.8668   56.6660 C.ar    1  ZINC001492779707    0.1300
     14 O14       -10.9485    1.1555   57.9164 O.3     1  ZINC001492779707   -0.3100
     15 C15       -11.5656    2.4304   58.1062 C.3     1  ZINC001492779707    0.0800
     16 C16       -13.0860    2.2615   58.1361 C.3     1  ZINC001492779707   -0.1500
     17 C17       -11.0932    3.0335   59.4305 C.3     1  ZINC001492779707   -0.1800
     18 C18       -11.2698    0.0862   55.8158 C.ar    1  ZINC001492779707   -0.1400
     19 N19       -12.1461   -3.9345   55.3621 N.pl3   1  ZINC001492779707   -0.4600
     20 C20       -11.1191   -3.8578   56.4040 C.3     1  ZINC001492779707    0.1200
     21 C21       -11.7458   -3.3419   57.7010 C.3     1  ZINC001492779707   -0.1200
     22 C22       -10.6544   -2.7480   58.5937 C.3     1  ZINC001492779707    0.0600
     23 H23       -10.1348   -1.9554   58.0556 H       1  ZINC001492779707    0.0800
     24 C24       -11.2885   -2.1739   59.8640 C.3     1  ZINC001492779707    0.0300
     25 O25       -10.2534   -1.7221   60.7423 O.3     1  ZINC001492779707   -0.3800
     26 C26        -9.3220   -2.7461   61.1043 C.3     1  ZINC001492779707    0.0200
     27 C27        -8.6879   -3.3202   59.8341 C.3     1  ZINC001492779707    0.0300
     28 O28        -9.7222   -3.7718   58.9545 O.3     1  ZINC001492779707   -0.3800
     29 H29       -14.3754   -4.9574   57.2167 H       1  ZINC001492779707    0.0900
     30 H30       -14.3702   -6.3616   56.1228 H       1  ZINC001492779707    0.1000
     31 H31       -12.9077   -5.9506   57.0505 H       1  ZINC001492779707    0.0800
     32 H32       -11.4895   -2.7885   51.6253 H       1  ZINC001492779707    0.0500
     33 H33        -9.8403   -2.2691   52.0479 H       1  ZINC001492779707    0.0900
     34 H34       -10.3700   -3.9299   52.4077 H       1  ZINC001492779707    0.0700
     35 H35       -11.5597   -0.6847   52.6060 H       1  ZINC001492779707    0.0700
     36 H36       -12.6850   -1.0301   53.9412 H       1  ZINC001492779707    0.0900
     37 H37        -9.2341    0.0508   53.1271 H       1  ZINC001492779707    0.1200
     38 H38        -7.8706    1.4448   54.6292 H       1  ZINC001492779707    0.1300
     39 H39        -8.6775    1.9691   56.8946 H       1  ZINC001492779707    0.1300
     40 H40       -11.2898    3.0932   57.2861 H       1  ZINC001492779707    0.0700
     41 H41       -13.3618    1.5986   58.9563 H       1  ZINC001492779707    0.0700
     42 H42       -13.5567    3.2339   58.2809 H       1  ZINC001492779707    0.0800
     43 H43       -13.4225    1.8316   57.1927 H       1  ZINC001492779707    0.0700
     44 H44       -10.0101    3.1539   59.4091 H       1  ZINC001492779707    0.0600
     45 H45       -11.5640    4.0060   59.5752 H       1  ZINC001492779707    0.0700
     46 H46       -11.3690    2.3707   60.2506 H       1  ZINC001492779707    0.0700
     47 H47       -12.2232   -0.2971   56.1483 H       1  ZINC001492779707    0.1300
     48 H48       -10.6982   -4.8489   56.5729 H       1  ZINC001492779707    0.1000
     49 H49       -10.3294   -3.1770   56.0862 H       1  ZINC001492779707    0.1000
     50 H50       -12.4827   -2.5732   57.4678 H       1  ZINC001492779707    0.0900
     51 H51       -12.2330   -4.1661   58.2220 H       1  ZINC001492779707    0.0800
     52 H52       -11.9352   -1.3365   59.6018 H       1  ZINC001492779707    0.1100
     53 H53       -11.8752   -2.9471   60.3599 H       1  ZINC001492779707    0.0600
     54 H54        -8.5445   -2.3229   61.7403 H       1  ZINC001492779707    0.1100
     55 H55        -9.8426   -3.5385   61.6418 H       1  ZINC001492779707    0.0600
     56 H56        -8.1012   -2.5470   59.3381 H       1  ZINC001492779707    0.0600
     57 H57        -8.0413   -4.1577   60.0962 H       1  ZINC001492779707    0.1100
@<TRIPOS>BOND
     1     1     2    1
     2     1    29    1
     3     1    30    1
     4     1    31    1
     5     2    19    1
     6     2     3    2
     7     3     4    1
     8     4     5    2
     9     5     6    1
    10     5    19    1
    11     6     7    1
    12     6     8    1
    13     7    32    1
    14     7    33    1
    15     7    34    1
    16     8     9    1
    17     8    35    1
    18     8    36    1
    19     9    18   ar
    20     9    10   ar
    21    10    11   ar
    22    10    37    1
    23    11    12   ar
    24    11    38    1
    25    12    13   ar
    26    12    39    1
    27    13    14    1
    28    13    18   ar
    29    14    15    1
    30    15    16    1
    31    15    17    1
    32    15    40    1
    33    16    41    1
    34    16    42    1
    35    16    43    1
    36    17    44    1
    37    17    45    1
    38    17    46    1
    39    18    47    1
    40    19    20    1
    41    20    21    1
    42    20    48    1
    43    20    49    1
    44    21    22    1
    45    21    50    1
    46    21    51    1
    47    22    23    1
    48    22    28    1
    49    22    24    1
    50    24    25    1
    51    24    52    1
    52    24    53    1
    53    25    26    1
    54    26    27    1
    55    26    54    1
    56    26    55    1
    57    27    28    1
    58    27    56    1
    59    27    57    1
@<TRIPOS>SUBSTRUCTURE
     1 ZINC001492779707        1 TEMP              0 ****  ****    0 ROOT


##########                                Name:    ZINC001436455587
##########                DOCK_Rotatable_Bonds:                   9
##########                         Heavy_Atoms:                  21
##########                    Molecular_Weight:             378.693
##########                DOCK_Rotatable_Bonds:                   9
##########                       Formal_Charge:          -0.0200001
##########                     HBond_Acceptors:                   5
##########                        HBond_Donors:                   1
##########                         Heavy_Atoms:                  21
##########                          Grid_Score:          -34.207893
##########                     Grid_vdw_energy:          -33.778595
##########                      Grid_es_energy:           -0.429299
##########           Internal_energy_repulsive:           10.962313

@<TRIPOS>MOLECULE
ZINC001436455587
 42 42 1 0 0
SMALL
USER_CHARGES


@<TRIPOS>ATOM
      1 C1        -14.3392   -4.9161   57.1315 C.3     1  ZINC001436455587   -0.1500
      2 C2        -12.9010   -4.4087   57.0085 C.3     1  ZINC001436455587   -0.1300
      3 C3        -12.7466   -3.6249   55.7036 C.3     1  ZINC001436455587   -0.1400
      4 C4        -11.3019   -3.1397   55.5681 C.3     1  ZINC001436455587    0.0800
      5 H5        -10.6215   -3.9351   55.8727 H       1  ZINC001436455587    0.0700
      6 C6        -11.0887   -1.9162   56.4616 C.3     1  ZINC001436455587    0.1200
      7 N7        -10.6292   -2.3506   57.7831 N.am    1  ZINC001436455587   -0.7200
      8 C8         -9.7248   -1.6135   58.4578 C.2     1  ZINC001436455587    0.5200
      9 O9         -9.2926   -0.5900   57.9718 O.2     1  ZINC001436455587   -0.5100
     10 C10        -9.2507   -2.0613   59.8165 C.3     1  ZINC001436455587    0.0600
     11 H11        -8.3723   -1.4832   60.1035 H       1  ZINC001436455587    0.1000
     12 C12        -8.8892   -3.5471   59.7662 C.3     1  ZINC001436455587   -0.1800
     13 O13       -10.2902   -1.8562   60.7753 O.3     1  ZINC001436455587   -0.2700
     14 C14       -10.0620   -0.9308   61.7445 C.ar    1  ZINC001436455587    0.1600
     15 C15        -8.9333   -1.0270   62.5443 C.ar    1  ZINC001436455587   -0.2000
     16 C16        -8.7027   -0.0852   63.5289 C.ar    1  ZINC001436455587   -0.0500
     17 C17        -9.5970    0.9533   63.7175 C.ar    1  ZINC001436455587   -0.0700
     18 Cl18       -9.3049    2.1347   64.9556 Cl      1  ZINC001436455587   -0.0600
     19 C19       -10.7240    1.0519   62.9205 C.ar    1  ZINC001436455587   -0.0400
     20 C20       -10.9556    0.1151   61.9313 C.ar    1  ZINC001436455587   -0.1200
     21 Br21      -12.4956    0.2498   60.8421 Br      1  ZINC001436455587   -0.0100
     22 O22       -11.0434   -2.7869   54.2076 O.3     1  ZINC001436455587   -0.3800
     23 C23       -10.7535   -3.9025   53.3629 C.3     1  ZINC001436455587    0.0200
     24 H24       -15.0246   -4.0684   57.1335 H       1  ZINC001436455587    0.0500
     25 H25       -14.5685   -5.5666   56.2875 H       1  ZINC001436455587    0.0600
     26 H26       -14.4493   -5.4745   58.0611 H       1  ZINC001436455587    0.0600
     27 H27       -12.6718   -3.7581   57.8524 H       1  ZINC001436455587    0.0600
     28 H28       -12.2157   -5.2563   57.0064 H       1  ZINC001436455587    0.0700
     29 H29       -12.9936   -4.2702   54.8607 H       1  ZINC001436455587    0.0800
     30 H30       -13.4186   -2.7668   55.7135 H       1  ZINC001436455587    0.0800
     31 H31       -10.3393   -1.2644   56.0124 H       1  ZINC001436455587    0.0800
     32 H32       -12.0281   -1.3729   56.5640 H       1  ZINC001436455587    0.0800
     33 H33       -10.9758   -3.1687   58.1724 H       1  ZINC001436455587    0.4000
     34 H34        -8.5463   -3.8711   60.7489 H       1  ZINC001436455587    0.0800
     35 H35        -9.7675   -4.1253   59.4792 H       1  ZINC001436455587    0.0800
     36 H36        -8.0962   -3.7037   59.0349 H       1  ZINC001436455587    0.0800
     37 H37        -8.2351   -1.8378   62.3980 H       1  ZINC001436455587    0.1500
     38 H38        -7.8237   -0.1600   64.1518 H       1  ZINC001436455587    0.1400
     39 H39       -11.4208    1.8635   63.0691 H       1  ZINC001436455587    0.1500
     40 H40       -11.6329   -4.5426   53.2917 H       1  ZINC001436455587    0.0500
     41 H41       -10.4828   -3.5451   52.3693 H       1  ZINC001436455587    0.0900
     42 H42        -9.9237   -4.4705   53.7833 H       1  ZINC001436455587    0.0400
@<TRIPOS>BOND
     1     1     2    1
     2     1    24    1
     3     1    25    1
     4     1    26    1
     5     2     3    1
     6     2    27    1
     7     2    28    1
     8     3     4    1
     9     3    29    1
    10     3    30    1
    11     4     5    1
    12     4     6    1
    13     4    22    1
    14     6     7    1
    15     6    31    1
    16     6    32    1
    17     7     8   am
    18     7    33    1
    19     8     9    2
    20     8    10    1
    21    10    11    1
    22    10    12    1
    23    10    13    1
    24    12    34    1
    25    12    35    1
    26    12    36    1
    27    13    14    1
    28    14    20   ar
    29    14    15   ar
    30    15    16   ar
    31    15    37    1
    32    16    17   ar
    33    16    38    1
    34    17    18    1
    35    17    19   ar
    36    19    20   ar
    37    19    39    1
    38    20    21    1
    39    22    23    1
    40    23    40    1
    41    23    41    1
    42    23    42    1
@<TRIPOS>SUBSTRUCTURE
     1 ZINC001436455587        1 TEMP              0 ****  ****    0 ROOT


##########                                Name:    ZINC000536173632
##########                DOCK_Rotatable_Bonds:                   7
##########                         Heavy_Atoms:                  29
##########                    Molecular_Weight:             407.389
##########                DOCK_Rotatable_Bonds:                   7
##########                       Formal_Charge:        -2.98023e-07
##########                     HBond_Acceptors:                   8
##########                        HBond_Donors:                   0
##########                         Heavy_Atoms:                  29
##########                          Grid_Score:          -34.190090
##########                     Grid_vdw_energy:          -34.615143
##########                      Grid_es_energy:            0.425053
##########           Internal_energy_repulsive:           17.936958

@<TRIPOS>MOLECULE
ZINC000536173632
 49 51 1 0 0
SMALL
USER_CHARGES


@<TRIPOS>ATOM
      1 C1         -8.3175    2.1277   55.3424 C.3     1  ZINC000536173632    0.0400
      2 O2         -9.4029    1.2306   54.9880 O.3     1  ZINC000536173632   -0.3500
      3 C3         -9.1907    0.3919   53.9555 C.2     1  ZINC000536173632    0.5100
      4 O4         -8.1284    0.4100   53.3667 O.2     1  ZINC000536173632   -0.5000
      5 C5        -10.2499   -0.5500   53.5393 C.ar    1  ZINC000536173632   -0.1300
      6 C6        -10.0237   -1.4392   52.4871 C.ar    1  ZINC000536173632   -0.0600
      7 C7        -11.0172   -2.3161   52.1034 C.ar    1  ZINC000536173632   -0.1300
      8 C8        -12.2357   -2.3153   52.7586 C.ar    1  ZINC000536173632   -0.0700
      9 C9        -12.4667   -1.4367   53.8024 C.ar    1  ZINC000536173632   -0.0800
     10 C10       -13.7972   -1.4432   54.5102 C.3     1  ZINC000536173632   -0.1000
     11 C11       -14.3042   -2.8585   54.6135 C.2     1  ZINC000536173632    0.5200
     12 O12       -15.2519   -3.2136   53.9450 O.2     1  ZINC000536173632   -0.5200
     13 N13       -13.7046   -3.7298   55.4489 N.am    1  ZINC000536173632   -0.6200
     14 C14       -14.1817   -5.1168   55.5670 C.3     1  ZINC000536173632    0.0700
     15 C15       -14.3755   -5.4366   57.0537 C.3     1  ZINC000536173632    0.0500
     16 O16       -13.1777   -5.1146   57.7644 O.3     1  ZINC000536173632   -0.3700
     17 C17       -12.8264   -3.7294   57.7221 C.3     1  ZINC000536173632    0.1200
     18 H18       -13.6480   -3.1331   58.1189 H       1  ZINC000536173632    0.0800
     19 C19       -11.5898   -3.4981   58.5518 C.ar    1  ZINC000536173632   -0.0900
     20 C20       -10.5390   -4.3938   58.4907 C.ar    1  ZINC000536173632   -0.0600
     21 C21        -9.4045   -4.1817   59.2519 C.ar    1  ZINC000536173632   -0.1200
     22 C22        -9.3211   -3.0735   60.0737 C.ar    1  ZINC000536173632   -0.0700
     23 C23       -10.3718   -2.1770   60.1342 C.ar    1  ZINC000536173632   -0.1800
     24 C24       -10.2810   -0.9690   61.0306 C.3     1  ZINC000536173632    0.5100
     25 F25        -9.3993   -1.2350   62.0837 F       1  ZINC000536173632   -0.1800
     26 F26        -9.8115    0.1240   60.2942 F       1  ZINC000536173632   -0.1800
     27 F27       -11.5477   -0.6744   61.5460 F       1  ZINC000536173632   -0.1800
     28 C28       -11.5041   -2.3868   59.3699 C.ar    1  ZINC000536173632   -0.0500
     29 C29       -12.5497   -3.3238   56.2654 C.3     1  ZINC000536173632    0.0900
     30 C30       -11.4800   -0.5589   54.2003 C.ar    1  ZINC000536173632   -0.0400
     31 H31        -7.4381    1.5442   55.6151 H       1  ZINC000536173632    0.0600
     32 H32        -8.0805    2.7655   54.4907 H       1  ZINC000536173632    0.0600
     33 H33        -8.6190    2.7469   56.1872 H       1  ZINC000536173632    0.1000
     34 H34        -9.0731   -1.4403   51.9743 H       1  ZINC000536173632    0.1400
     35 H35       -10.8435   -3.0046   51.2895 H       1  ZINC000536173632    0.1400
     36 H36       -13.0103   -3.0035   52.4538 H       1  ZINC000536173632    0.1300
     37 H37       -13.6789   -1.0257   55.5101 H       1  ZINC000536173632    0.1100
     38 H38       -14.5110   -0.8417   53.9473 H       1  ZINC000536173632    0.1100
     39 H39       -15.1305   -5.2246   55.0415 H       1  ZINC000536173632    0.1000
     40 H40       -13.4449   -5.7961   55.1384 H       1  ZINC000536173632    0.0800
     41 H41       -15.2027   -4.8465   57.4481 H       1  ZINC000536173632    0.0600
     42 H42       -14.5951   -6.4976   57.1722 H       1  ZINC000536173632    0.1100
     43 H43       -10.6042   -5.2597   57.8485 H       1  ZINC000536173632    0.1400
     44 H44        -8.5837   -4.8820   59.2046 H       1  ZINC000536173632    0.1400
     45 H45        -8.4351   -2.9081   60.6689 H       1  ZINC000536173632    0.1400
     46 H46       -12.3249   -1.6865   59.4171 H       1  ZINC000536173632    0.1400
     47 H47       -11.6483   -3.8232   55.9102 H       1  ZINC000536173632    0.0800
     48 H48       -12.4198   -2.2433   56.2035 H       1  ZINC000536173632    0.1100
     49 H49       -11.6614    0.1260   55.0153 H       1  ZINC000536173632    0.1400
@<TRIPOS>BOND
     1     1     2    1
     2     1    31    1
     3     1    32    1
     4     1    33    1
     5     2     3    1
     6     3     4    2
     7     3     5    1
     8     5    30   ar
     9     5     6   ar
    10     6     7   ar
    11     6    34    1
    12     7     8   ar
    13     7    35    1
    14     8     9   ar
    15     8    36    1
    16     9    10    1
    17     9    30   ar
    18    10    11    1
    19    10    37    1
    20    10    38    1
    21    11    12    2
    22    11    13   am
    23    13    29    1
    24    13    14    1
    25    14    15    1
    26    14    39    1
    27    14    40    1
    28    15    16    1
    29    15    41    1
    30    15    42    1
    31    16    17    1
    32    17    18    1
    33    17    19    1
    34    17    29    1
    35    19    28   ar
    36    19    20   ar
    37    20    21   ar
    38    20    43    1
    39    21    22   ar
    40    21    44    1
    41    22    23   ar
    42    22    45    1
    43    23    24    1
    44    23    28   ar
    45    24    25    1
    46    24    26    1
    47    24    27    1
    48    28    46    1
    49    29    47    1
    50    29    48    1
    51    30    49    1
@<TRIPOS>SUBSTRUCTURE
     1 ZINC000536173632        1 TEMP              0 ****  ****    0 ROOT


##########                                Name:    ZINC001291841503
##########                DOCK_Rotatable_Bonds:                   7
##########                         Heavy_Atoms:                  28
##########                    Molecular_Weight:             397.544
##########                DOCK_Rotatable_Bonds:                   7
##########                       Formal_Charge:         -0.00999964
##########                     HBond_Acceptors:                   7
##########                        HBond_Donors:                   0
##########                         Heavy_Atoms:                  28
##########                          Grid_Score:          -34.187183
##########                     Grid_vdw_energy:          -33.538525
##########                      Grid_es_energy:           -0.648660
##########           Internal_energy_repulsive:           13.785816

@<TRIPOS>MOLECULE
ZINC001291841503
 55 58 1 0 0
SMALL
USER_CHARGES


@<TRIPOS>ATOM
      1 C1         -9.7899   -2.9243   60.3286 C.3     1  ZINC001291841503   -0.1500
      2 C2        -10.2014   -3.3848   58.9287 C.3     1  ZINC001291841503   -0.1100
      3 C3        -10.9969   -2.2742   58.2398 C.3     1  ZINC001291841503    0.0500
      4 H4        -10.5070   -1.3158   58.4122 H       1  ZINC001291841503    0.0900
      5 C5        -11.0606   -2.5464   56.7590 C.2     1  ZINC001291841503    0.2000
      6 N6        -10.9059   -3.7029   56.1791 N.2     1  ZINC001291841503   -0.2700
      7 N7        -11.0225   -3.5764   54.9054 N.2     1  ZINC001291841503   -0.3100
      8 C8        -11.2598   -2.3221   54.6018 C.2     1  ZINC001291841503    0.3600
      9 N9        -11.4435   -1.8028   53.3301 N.3     1  ZINC001291841503   -0.4500
     10 C10       -10.2014   -1.8717   52.5489 C.3     1  ZINC001291841503    0.0200
     11 C11       -12.5413   -2.4881   52.6352 C.3     1  ZINC001291841503    0.0700
     12 H12       -12.2491   -3.5002   52.3552 H       1  ZINC001291841503    0.0800
     13 C13       -13.8241   -2.5055   53.5104 C.3     1  ZINC001291841503   -0.1400
     14 C14       -14.9235   -2.5616   52.4199 C.3     1  ZINC001291841503    0.0500
     15 O15       -14.4279   -1.7472   51.3454 O.3     1  ZINC001291841503   -0.3800
     16 C16       -12.9944   -1.6847   51.3971 C.3     1  ZINC001291841503    0.0600
     17 N17       -11.2974   -1.6267   55.7752 N.pl3   1  ZINC001291841503   -0.4700
     18 C18       -11.5330   -0.1907   55.9452 C.3     1  ZINC001291841503    0.1900
     19 C19       -10.2260    0.5502   55.8273 C.2     1  ZINC001291841503   -0.2700
     20 C20        -9.6001    0.8641   54.6890 C.2     1  ZINC001291841503    0.0800
     21 N21        -8.4665    1.5165   54.8506 N.2     1  ZINC001291841503   -0.4800
     22 C22        -8.1015    1.7705   56.0618 C.2     1  ZINC001291841503    0.0500
     23 C23        -6.8423    2.5030   56.4475 C.3     1  ZINC001291841503   -0.0800
     24 S24        -9.2569    1.1622   57.1655 S.3     1  ZINC001291841503    0.1800
     25 C25       -12.3938   -2.2329   58.8036 C.ar    1  ZINC001291841503   -0.0900
     26 C26       -12.7527   -1.2335   59.6886 C.ar    1  ZINC001291841503   -0.0900
     27 C27       -14.0341   -1.1955   60.2057 C.ar    1  ZINC001291841503   -0.1200
     28 C28       -14.9568   -2.1567   59.8375 C.ar    1  ZINC001291841503   -0.1200
     29 C29       -14.5982   -3.1557   58.9518 C.ar    1  ZINC001291841503   -0.1200
     30 C30       -13.3180   -3.1911   58.4313 C.ar    1  ZINC001291841503   -0.1100
     31 H31        -9.1718   -2.0300   60.2498 H       1  ZINC001291841503    0.0500
     32 H32       -10.6815   -2.6993   60.9138 H       1  ZINC001291841503    0.0500
     33 H33        -9.2232   -3.7155   60.8194 H       1  ZINC001291841503    0.0600
     34 H34        -9.3099   -3.6097   58.3435 H       1  ZINC001291841503    0.0800
     35 H35       -10.8195   -4.2792   59.0075 H       1  ZINC001291841503    0.0800
     36 H36        -9.9358   -2.9154   52.3799 H       1  ZINC001291841503    0.0500
     37 H37       -10.3472   -1.3742   51.5901 H       1  ZINC001291841503    0.0900
     38 H38        -9.3995   -1.3769   53.0968 H       1  ZINC001291841503    0.0700
     39 H39       -13.8548   -3.3911   54.1451 H       1  ZINC001291841503    0.0900
     40 H40       -13.9065   -1.5955   54.1048 H       1  ZINC001291841503    0.0800
     41 H41       -15.0684   -3.5875   52.0813 H       1  ZINC001291841503    0.0700
     42 H42       -15.8585   -2.1535   52.8038 H       1  ZINC001291841503    0.0900
     43 H43       -12.6727   -0.6478   51.4946 H       1  ZINC001291841503    0.0800
     44 H44       -12.5722   -2.1205   50.4916 H       1  ZINC001291841503    0.0700
     45 H45       -12.2195    0.1586   55.1740 H       1  ZINC001291841503    0.1100
     46 H46       -11.9670   -0.0076   56.9281 H       1  ZINC001291841503    0.1100
     47 H47        -9.9912    0.6044   53.7164 H       1  ZINC001291841503    0.1700
     48 H48        -7.0474    3.5720   56.5064 H       1  ZINC001291841503    0.0900
     49 H49        -6.4965    2.1455   57.4174 H       1  ZINC001291841503    0.0800
     50 H50        -6.0721    2.3217   55.6977 H       1  ZINC001291841503    0.0900
     51 H51       -12.0318   -0.4824   59.9762 H       1  ZINC001291841503    0.1300
     52 H52       -14.3142   -0.4151   60.8977 H       1  ZINC001291841503    0.1200
     53 H53       -15.9577   -2.1275   60.2420 H       1  ZINC001291841503    0.1200
     54 H54       -15.3190   -3.9068   58.6643 H       1  ZINC001291841503    0.1200
     55 H55       -13.0378   -3.9715   57.7392 H       1  ZINC001291841503    0.1200
@<TRIPOS>BOND
     1     1     2    1
     2     1    31    1
     3     1    32    1
     4     1    33    1
     5     2     3    1
     6     2    34    1
     7     2    35    1
     8     3     4    1
     9     3     5    1
    10     3    25    1
    11     5    17    1
    12     5     6    2
    13     6     7    1
    14     7     8    2
    15     8     9    1
    16     8    17    1
    17     9    10    1
    18     9    11    1
    19    10    36    1
    20    10    37    1
    21    10    38    1
    22    11    12    1
    23    11    16    1
    24    11    13    1
    25    13    14    1
    26    13    39    1
    27    13    40    1
    28    14    15    1
    29    14    41    1
    30    14    42    1
    31    15    16    1
    32    16    43    1
    33    16    44    1
    34    17    18    1
    35    18    19    1
    36    18    45    1
    37    18    46    1
    38    19    24    1
    39    19    20    2
    40    20    21    1
    41    20    47    1
    42    21    22    2
    43    22    23    1
    44    22    24    1
    45    23    48    1
    46    23    49    1
    47    23    50    1
    48    25    30   ar
    49    25    26   ar
    50    26    27   ar
    51    26    51    1
    52    27    28   ar
    53    27    52    1
    54    28    29   ar
    55    28    53    1
    56    29    30   ar
    57    29    54    1
    58    30    55    1
@<TRIPOS>SUBSTRUCTURE
     1 ZINC001291841503        1 TEMP              0 ****  ****    0 ROOT


##########                                Name:    ZINC000433533595
##########                DOCK_Rotatable_Bonds:                  10
##########                         Heavy_Atoms:                  24
##########                    Molecular_Weight:             397.312
##########                DOCK_Rotatable_Bonds:                  10
##########                       Formal_Charge:          0.00999916
##########                     HBond_Acceptors:                   5
##########                        HBond_Donors:                   1
##########                         Heavy_Atoms:                  24
##########                          Grid_Score:          -34.180748
##########                     Grid_vdw_energy:          -32.059410
##########                      Grid_es_energy:           -2.121336
##########           Internal_energy_repulsive:           21.009285

@<TRIPOS>MOLECULE
ZINC000433533595
 49 50 1 0 0
SMALL
USER_CHARGES


@<TRIPOS>ATOM
      1 C1         -5.9223    2.1225   65.7479 C.3     1  ZINC000433533595   -0.1500
      2 C2         -7.1467    1.2295   65.9583 C.3     1  ZINC000433533595   -0.1200
      3 C3         -7.8416    0.9920   64.6160 C.3     1  ZINC000433533595   -0.1300
      4 C4         -9.0667    0.1002   64.8267 C.3     1  ZINC000433533595    0.1000
      5 N5         -9.7186   -0.1464   63.5381 N.am    1  ZINC000433533595   -0.5500
      6 C6         -9.1957   -1.0438   62.6791 C.2     1  ZINC000433533595    0.5100
      7 O7         -8.1849   -1.6476   62.9732 O.2     1  ZINC000433533595   -0.5100
      8 C8         -9.8602   -1.2952   61.3656 C.2     1  ZINC000433533595    0.5000
      9 O9        -11.0716   -1.3254   61.2942 O.2     1  ZINC000433533595   -0.4900
     10 N10        -9.1149   -1.4886   60.2595 N.am    1  ZINC000433533595   -0.6300
     11 C11        -9.7373   -1.7240   59.0292 C.ar    1  ZINC000433533595    0.1200
     12 C12       -10.6011   -2.7997   58.8811 C.ar    1  ZINC000433533595   -0.0600
     13 C13       -11.2151   -3.0302   57.6636 C.ar    1  ZINC000433533595   -0.1100
     14 Br14      -12.3925   -4.4963   57.4635 Br      1  ZINC000433533595   -0.0400
     15 C15       -10.9702   -2.1903   56.5919 C.ar    1  ZINC000433533595   -0.0600
     16 C16       -10.1105   -1.1164   56.7324 C.ar    1  ZINC000433533595   -0.1900
     17 C17        -9.4960   -0.8752   57.9500 C.ar    1  ZINC000433533595    0.1300
     18 O18        -8.6504    0.1806   58.0891 O.3     1  ZINC000433533595   -0.3100
     19 C19        -9.1203    1.4521   57.6369 C.3     1  ZINC000433533595    0.0800
     20 C20       -10.1291    2.0103   58.6427 C.3     1  ZINC000433533595   -0.1500
     21 C21        -7.9394    2.4167   57.5103 C.3     1  ZINC000433533595   -0.1800
     22 C22       -10.9388    0.5825   63.1831 C.3     1  ZINC000433533595    0.0600
     23 C23       -11.1209    1.9833   63.7706 C.3     1  ZINC000433533595   -0.1900
     24 C24       -10.7908    1.8133   62.2864 C.3     1  ZINC000433533595   -0.1800
     25 H25        -6.2371    3.0777   65.3278 H       1  ZINC000433533595    0.0500
     26 H26        -5.4273    2.2916   66.7042 H       1  ZINC000433533595    0.0500
     27 H27        -5.2301    1.6341   65.0618 H       1  ZINC000433533595    0.0500
     28 H28        -6.8319    0.2742   66.3785 H       1  ZINC000433533595    0.0700
     29 H29        -7.8389    1.7178   66.6444 H       1  ZINC000433533595    0.0600
     30 H30        -8.1556    1.9474   64.1954 H       1  ZINC000433533595    0.0600
     31 H31        -7.1497    0.5030   63.9303 H       1  ZINC000433533595    0.0700
     32 H32        -8.7547   -0.8485   65.2635 H       1  ZINC000433533595    0.1100
     33 H33        -9.7665    0.5969   65.4987 H       1  ZINC000433533595    0.0800
     34 H34        -8.1469   -1.4645   60.3166 H       1  ZINC000433533595    0.4300
     35 H35       -10.7936   -3.4570   59.7162 H       1  ZINC000433533595    0.1600
     36 H36       -11.4517   -2.3742   55.6428 H       1  ZINC000433533595    0.1400
     37 H37        -9.9217   -0.4628   55.8936 H       1  ZINC000433533595    0.1500
     38 H38        -9.6012    1.3372   56.6655 H       1  ZINC000433533595    0.0800
     39 H39        -9.6481    2.1252   59.6140 H       1  ZINC000433533595    0.0700
     40 H40       -10.4875    2.9801   58.2977 H       1  ZINC000433533595    0.0800
     41 H41       -10.9704    1.3231   58.7329 H       1  ZINC000433533595    0.0700
     42 H42        -7.4584    2.5315   58.4817 H       1  ZINC000433533595    0.0700
     43 H43        -7.2207    2.0190   56.7938 H       1  ZINC000433533595    0.0600
     44 H44        -8.2978    3.3865   57.1653 H       1  ZINC000433533595    0.0800
     45 H45       -11.8314   -0.0296   63.0544 H       1  ZINC000433533595    0.1400
     46 H46       -12.1336    2.2931   64.0288 H       1  ZINC000433533595    0.0900
     47 H47       -10.3329    2.3626   64.4212 H       1  ZINC000433533595    0.1400
     48 H48        -9.7856    2.0806   61.9606 H       1  ZINC000433533595    0.1000
     49 H49       -11.5864    2.0111   61.5680 H       1  ZINC000433533595    0.1000
@<TRIPOS>BOND
     1     1     2    1
     2     1    25    1
     3     1    26    1
     4     1    27    1
     5     2     3    1
     6     2    28    1
     7     2    29    1
     8     3     4    1
     9     3    30    1
    10     3    31    1
    11     4     5    1
    12     4    32    1
    13     4    33    1
    14     5     6   am
    15     5    22    1
    16     6     7    2
    17     6     8    1
    18     8     9    2
    19     8    10   am
    20    10    11    1
    21    10    34    1
    22    11    17   ar
    23    11    12   ar
    24    12    13   ar
    25    12    35    1
    26    13    14    1
    27    13    15   ar
    28    15    16   ar
    29    15    36    1
    30    16    17   ar
    31    16    37    1
    32    17    18    1
    33    18    19    1
    34    19    20    1
    35    19    21    1
    36    19    38    1
    37    20    39    1
    38    20    40    1
    39    20    41    1
    40    21    42    1
    41    21    43    1
    42    21    44    1
    43    22    24    1
    44    22    23    1
    45    22    45    1
    46    23    24    1
    47    23    46    1
    48    23    47    1
    49    24    48    1
    50    24    49    1
@<TRIPOS>SUBSTRUCTURE
     1 ZINC000433533595        1 TEMP              0 ****  ****    0 ROOT


##########                                Name:    ZINC000425987417
##########                DOCK_Rotatable_Bonds:                   9
##########                         Heavy_Atoms:                  25
##########                    Molecular_Weight:             357.419
##########                DOCK_Rotatable_Bonds:                   9
##########                       Formal_Charge:         -0.00999992
##########                     HBond_Acceptors:                   7
##########                        HBond_Donors:                   1
##########                         Heavy_Atoms:                  25
##########                          Grid_Score:          -34.169430
##########                     Grid_vdw_energy:          -33.549690
##########                      Grid_es_energy:           -0.619739
##########           Internal_energy_repulsive:           14.440855

@<TRIPOS>MOLECULE
ZINC000425987417
 51 52 1 0 0
SMALL
USER_CHARGES


@<TRIPOS>ATOM
      1 C1        -13.9162   -1.1652   56.2050 C.3     1  ZINC000425987417   -0.1500
      2 C2        -14.1380   -2.1594   55.0634 C.3     1  ZINC000425987417    0.0400
      3 N3        -13.1824   -3.2682   55.1871 N.3     1  ZINC000425987417   -0.5300
      4 C4        -13.7184   -4.3316   56.0473 C.3     1  ZINC000425987417    0.0400
      5 C5        -12.6148   -4.8404   56.9769 C.3     1  ZINC000425987417    0.1400
      6 N6        -11.9236   -3.7002   57.5840 N.am    1  ZINC000425987417   -0.7500
      7 C7        -10.7945   -3.8966   58.2933 C.2     1  ZINC000425987417    0.7200
      8 O8        -10.3496   -5.0199   58.4292 O.2     1  ZINC000425987417   -0.5800
      9 N9        -10.1586   -2.8477   58.8518 N.am    1  ZINC000425987417   -0.6200
     10 C10        -8.9234   -3.0285   59.6325 C.3     1  ZINC000425987417    0.1300
     11 C11        -9.2136   -2.6122   61.0737 C.3     1  ZINC000425987417   -0.1000
     12 C12        -9.9277   -1.2870   61.1154 C.ar    1  ZINC000425987417   -0.0600
     13 C13        -9.8870   -0.5704   62.3050 C.ar    1  ZINC000425987417   -0.1200
     14 C14       -10.5285    0.6461   62.4138 C.ar    1  ZINC000425987417   -0.1100
     15 C15       -11.2197    1.1581   61.3318 C.ar    1  ZINC000425987417   -0.1200
     16 C16       -11.2589    0.4500   60.1479 C.ar    1  ZINC000425987417   -0.1100
     17 C17       -10.6092   -0.7712   60.0355 C.ar    1  ZINC000425987417   -0.0900
     18 C18       -10.6661   -1.4797   58.7011 C.3     1  ZINC000425987417    0.1800
     19 H19       -11.6979   -1.5122   58.3514 H       1  ZINC000425987417    0.0900
     20 C20        -9.8078   -0.7225   57.6857 C.3     1  ZINC000425987417   -0.1600
     21 C21       -12.8134   -3.7951   53.8665 C.3     1  ZINC000425987417    0.0500
     22 C22       -11.3166   -3.5819   53.6322 C.3     1  ZINC000425987417   -0.1600
     23 C23       -11.1089   -2.3511   52.7476 C.3     1  ZINC000425987417    0.4500
     24 F24       -11.2478   -1.1929   53.5199 F       1  ZINC000425987417   -0.1800
     25 F25        -9.8266   -2.3885   52.1897 F       1  ZINC000425987417   -0.1800
     26 F26       -12.0627   -2.3461   51.7241 F       1  ZINC000425987417   -0.1900
     27 H27       -12.9148   -0.7416   56.1285 H       1  ZINC000425987417    0.0500
     28 H28       -14.6547   -0.3662   56.1395 H       1  ZINC000425987417    0.0600
     29 H29       -14.0212   -1.6795   57.1602 H       1  ZINC000425987417    0.0700
     30 H30       -15.1548   -2.5488   55.1131 H       1  ZINC000425987417    0.0800
     31 H31       -13.9881   -1.6555   54.1085 H       1  ZINC000425987417    0.0400
     32 H32       -14.5417   -3.9368   56.6427 H       1  ZINC000425987417    0.0500
     33 H33       -14.0790   -5.1527   55.4279 H       1  ZINC000425987417    0.0800
     34 H34       -13.0554   -5.4573   57.7601 H       1  ZINC000425987417    0.0800
     35 H35       -11.9024   -5.4342   56.4042 H       1  ZINC000425987417    0.0700
     36 H36       -12.2786   -2.8041   57.4756 H       1  ZINC000425987417    0.3900
     37 H37        -8.6197   -4.0750   59.6049 H       1  ZINC000425987417    0.1000
     38 H38        -8.1318   -2.4030   59.2201 H       1  ZINC000425987417    0.0700
     39 H39        -9.8369   -3.3705   61.5473 H       1  ZINC000425987417    0.0800
     40 H40        -8.2734   -2.5301   61.6192 H       1  ZINC000425987417    0.0900
     41 H41        -9.3490   -0.9694   63.1521 H       1  ZINC000425987417    0.1200
     42 H42       -10.4910    1.1968   63.3421 H       1  ZINC000425987417    0.1200
     43 H43       -11.7271    2.1080   61.4126 H       1  ZINC000425987417    0.1200
     44 H44       -11.7994    0.8493   59.3025 H       1  ZINC000425987417    0.1200
     45 H45        -8.7762   -0.6885   58.0356 H       1  ZINC000425987417    0.0700
     46 H46        -9.8485   -1.2329   56.7234 H       1  ZINC000425987417    0.0600
     47 H47       -10.1876    0.2931   57.5747 H       1  ZINC000425987417    0.0700
     48 H48       -13.0396   -4.8606   53.8242 H       1  ZINC000425987417    0.0500
     49 H49       -13.3799   -3.2727   53.0956 H       1  ZINC000425987417    0.0900
     50 H50       -10.8171   -3.4301   54.5891 H       1  ZINC000425987417    0.1200
     51 H51       -10.8976   -4.4589   53.1388 H       1  ZINC000425987417    0.1100
@<TRIPOS>BOND
     1     1     2    1
     2     1    27    1
     3     1    28    1
     4     1    29    1
     5     2     3    1
     6     2    30    1
     7     2    31    1
     8     3     4    1
     9     3    21    1
    10     4     5    1
    11     4    32    1
    12     4    33    1
    13     5     6    1
    14     5    34    1
    15     5    35    1
    16     6     7   am
    17     6    36    1
    18     7     8    2
    19     7     9   am
    20     9    18    1
    21     9    10    1
    22    10    11    1
    23    10    37    1
    24    10    38    1
    25    11    12    1
    26    11    39    1
    27    11    40    1
    28    12    17   ar
    29    12    13   ar
    30    13    14   ar
    31    13    41    1
    32    14    15   ar
    33    14    42    1
    34    15    16   ar
    35    15    43    1
    36    16    17   ar
    37    16    44    1
    38    17    18    1
    39    18    19    1
    40    18    20    1
    41    20    45    1
    42    20    46    1
    43    20    47    1
    44    21    22    1
    45    21    48    1
    46    21    49    1
    47    22    23    1
    48    22    50    1
    49    22    51    1
    50    23    24    1
    51    23    25    1
    52    23    26    1
@<TRIPOS>SUBSTRUCTURE
     1 ZINC000425987417        1 TEMP              0 ****  ****    0 ROOT


##########                                Name:    ZINC000533037883
##########                DOCK_Rotatable_Bonds:                   7
##########                         Heavy_Atoms:                  27
##########                    Molecular_Weight:             368.479
##########                DOCK_Rotatable_Bonds:                   7
##########                       Formal_Charge:          0.00999947
##########                     HBond_Acceptors:                   6
##########                        HBond_Donors:                   1
##########                         Heavy_Atoms:                  27
##########                          Grid_Score:          -34.162579
##########                     Grid_vdw_energy:          -33.658192
##########                      Grid_es_energy:           -0.504385
##########           Internal_energy_repulsive:           15.522022

@<TRIPOS>MOLECULE
ZINC000533037883
 55 58 1 0 0
SMALL
USER_CHARGES


@<TRIPOS>ATOM
      1 O1        -13.5960   -2.2094   58.2324 O.2     1  ZINC000533037883   -0.5900
      2 C2        -12.4981   -2.7061   58.0702 C.2     1  ZINC000533037883    0.7100
      3 N3        -12.2051   -3.3301   56.9121 N.am    1  ZINC000533037883   -0.7500
      4 C4        -13.2116   -3.4152   55.8509 C.3     1  ZINC000533037883    0.1400
      5 C5        -13.1450   -2.1572   54.9828 C.3     1  ZINC000533037883   -0.0500
      6 C6        -11.8926   -2.1907   54.1452 C.2     1  ZINC000533037883   -0.2300
      7 C7        -11.1331   -1.1234   53.8059 C.2     1  ZINC000533037883    0.0600
      8 N8        -10.1039   -1.5735   53.0530 N.pl3   1  ZINC000533037883   -0.3200
      9 C9         -9.0833   -0.7893   52.4974 C.ar    1  ZINC000533037883    0.1600
     10 C10        -9.0486    0.5780   52.7360 C.ar    1  ZINC000533037883   -0.1400
     11 C11        -8.0418    1.3480   52.1872 C.ar    1  ZINC000533037883   -0.0900
     12 C12        -7.0694    0.7585   51.4004 C.ar    1  ZINC000533037883   -0.1300
     13 C13        -7.1014   -0.6030   51.1611 C.ar    1  ZINC000533037883   -0.0900
     14 C14        -8.1021   -1.3792   51.7122 C.ar    1  ZINC000533037883   -0.1200
     15 N15       -10.2379   -2.9623   52.9272 N.2     1  ZINC000533037883   -0.2900
     16 C16       -11.3066   -3.3316   53.5861 C.2     1  ZINC000533037883    0.0700
     17 N17       -11.5722   -2.6278   59.0465 N.am    1  ZINC000533037883   -0.6300
     18 C18       -10.2392   -3.2178   58.8629 C.3     1  ZINC000533037883    0.1100
     19 C19        -9.1823   -2.1448   59.1437 C.3     1  ZINC000533037883   -0.1400
     20 C20        -9.4208   -1.5509   60.5338 C.3     1  ZINC000533037883   -0.1100
     21 C21       -10.8015   -0.8923   60.5790 C.3     1  ZINC000533037883   -0.0900
     22 H22       -10.8596   -0.1163   59.8158 H       1  ZINC000533037883    0.0800
     23 C23       -11.0254   -0.2696   61.9585 C.3     1  ZINC000533037883   -0.1200
     24 H24       -10.9152   -1.0185   62.7427 H       1  ZINC000533037883    0.0900
     25 C25       -10.0561    0.9212   62.1912 C.3     1  ZINC000533037883   -0.1500
     26 C26       -10.8803    1.7822   63.1813 C.3     1  ZINC000533037883    0.0500
     27 O27       -12.2448    1.6408   62.7553 O.3     1  ZINC000533037883   -0.3900
     28 C28       -12.4101    0.4085   62.0370 C.3     1  ZINC000533037883    0.0500
     29 C29       -11.8746   -1.9457   60.3122 C.3     1  ZINC000533037883    0.1300
     30 H30       -11.3279   -3.7230   56.7812 H       1  ZINC000533037883    0.4000
     31 H31       -13.0164   -4.2928   55.2346 H       1  ZINC000533037883    0.0700
     32 H32       -14.2031   -3.4973   56.2964 H       1  ZINC000533037883    0.0700
     33 H33       -14.0174   -2.1192   54.3305 H       1  ZINC000533037883    0.0800
     34 H34       -13.1308   -1.2747   55.6224 H       1  ZINC000533037883    0.0800
     35 H35       -11.3163   -0.0965   54.0857 H       1  ZINC000533037883    0.1800
     36 H36        -9.8082    1.0391   53.3498 H       1  ZINC000533037883    0.1300
     37 H37        -8.0143    2.4117   52.3725 H       1  ZINC000533037883    0.1300
     38 H38        -6.2835    1.3628   50.9719 H       1  ZINC000533037883    0.1300
     39 H39        -6.3405   -1.0607   50.5462 H       1  ZINC000533037883    0.1300
     40 H40        -8.1263   -2.4426   51.5251 H       1  ZINC000533037883    0.1400
     41 H41       -11.6760   -4.3423   53.6774 H       1  ZINC000533037883    0.1900
     42 H42       -10.1089   -4.0491   59.5558 H       1  ZINC000533037883    0.0700
     43 H43       -10.1351   -3.5738   57.8380 H       1  ZINC000533037883    0.0800
     44 H44        -8.1896   -2.5933   59.1052 H       1  ZINC000533037883    0.0800
     45 H45        -9.2556   -1.3571   58.3940 H       1  ZINC000533037883    0.0700
     46 H46        -9.3720   -2.3434   61.2806 H       1  ZINC000533037883    0.0700
     47 H47        -8.6553   -0.8046   60.7460 H       1  ZINC000533037883    0.0700
     48 H48        -9.1234    0.5858   62.6446 H       1  ZINC000533037883    0.0800
     49 H49        -9.8676    1.4615   61.2635 H       1  ZINC000533037883    0.0800
     50 H50       -10.7607    1.4082   64.1981 H       1  ZINC000533037883    0.0600
     51 H51       -10.5719    2.8260   63.1225 H       1  ZINC000533037883    0.0900
     52 H52       -12.7762    0.6132   61.0310 H       1  ZINC000533037883    0.0700
     53 H53       -13.1142   -0.2352   62.5642 H       1  ZINC000533037883    0.0700
     54 H54       -12.8504   -1.4644   60.2452 H       1  ZINC000533037883    0.1000
     55 H55       -11.8797   -2.6755   61.1217 H       1  ZINC000533037883    0.0700
@<TRIPOS>BOND
     1     1     2    2
     2     2     3   am
     3     2    17   am
     4     3     4    1
     5     3    30    1
     6     4     5    1
     7     4    31    1
     8     4    32    1
     9     5     6    1
    10     5    33    1
    11     5    34    1
    12     6    16    1
    13     6     7    2
    14     7     8    1
    15     7    35    1
    16     8     9    1
    17     8    15    1
    18     9    14   ar
    19     9    10   ar
    20    10    11   ar
    21    10    36    1
    22    11    12   ar
    23    11    37    1
    24    12    13   ar
    25    12    38    1
    26    13    14   ar
    27    13    39    1
    28    14    40    1
    29    15    16    2
    30    16    41    1
    31    17    29    1
    32    17    18    1
    33    18    19    1
    34    18    42    1
    35    18    43    1
    36    19    20    1
    37    19    44    1
    38    19    45    1
    39    20    21    1
    40    20    46    1
    41    20    47    1
    42    21    22    1
    43    21    23    1
    44    21    29    1
    45    23    24    1
    46    23    28    1
    47    23    25    1
    48    25    26    1
    49    25    48    1
    50    25    49    1
    51    26    27    1
    52    26    50    1
    53    26    51    1
    54    27    28    1
    55    28    52    1
    56    28    53    1
    57    29    54    1
    58    29    55    1
@<TRIPOS>SUBSTRUCTURE
     1 ZINC000533037883        1 TEMP              0 ****  ****    0 ROOT


##########                                Name:    ZINC000498646479
##########                DOCK_Rotatable_Bonds:                   7
##########                         Heavy_Atoms:                  29
##########                    Molecular_Weight:              407.58
##########                DOCK_Rotatable_Bonds:                   7
##########                       Formal_Charge:          -0.0199997
##########                     HBond_Acceptors:                   5
##########                        HBond_Donors:                   0
##########                         Heavy_Atoms:                  29
##########                          Grid_Score:          -34.161049
##########                     Grid_vdw_energy:          -33.410252
##########                      Grid_es_energy:           -0.750797
##########           Internal_energy_repulsive:           27.222233

@<TRIPOS>MOLECULE
ZINC000498646479
 58 61 1 0 0
SMALL
USER_CHARGES


@<TRIPOS>ATOM
      1 C1         -6.2984    1.2271   50.7286 C.3     1  ZINC000498646479   -0.1500
      2 C2         -7.2052    1.5880   51.9069 C.3     1  ZINC000498646479   -0.0600
      3 C3         -8.2008    0.4793   52.1325 C.2     1  ZINC000498646479   -0.1700
      4 C4         -7.9825   -0.8127   51.8828 C.2     1  ZINC000498646479   -0.1400
      5 C5         -9.0467   -1.6501   52.1699 C.2     1  ZINC000498646479   -0.1300
      6 C6        -10.1292   -1.0381   52.6527 C.2     1  ZINC000498646479   -0.1900
      7 C7        -11.4134   -1.7235   53.0424 C.3     1  ZINC000498646479    0.1300
      8 N8        -11.2914   -2.2528   54.4073 N.3     1  ZINC000498646479   -0.5300
      9 C9        -12.3876   -3.1822   54.7114 C.3     1  ZINC000498646479    0.0400
     10 C10       -12.1275   -3.8475   56.0671 C.3     1  ZINC000498646479    0.1200
     11 N11       -11.9089   -2.7942   57.0702 N.am    1  ZINC000498646479   -0.6100
     12 C12       -12.5957   -2.7899   58.2298 C.2     1  ZINC000498646479    0.5200
     13 O13       -13.4067   -3.6625   58.4574 O.2     1  ZINC000498646479   -0.5400
     14 C14       -12.3559   -1.7010   59.2435 C.3     1  ZINC000498646479   -0.1000
     15 H15       -11.2915   -1.4697   59.2835 H       1  ZINC000498646479    0.0900
     16 C16       -13.1353   -0.4478   58.8399 C.3     1  ZINC000498646479   -0.1500
     17 C17       -12.8273   -2.1732   60.6204 C.3     1  ZINC000498646479   -0.0600
     18 C18       -12.6777   -1.0508   61.6147 C.ar    1  ZINC000498646479   -0.1200
     19 C19       -11.4134   -0.7128   62.1302 C.ar    1  ZINC000498646479   -0.0200
     20 C20       -10.2457   -1.3911   61.7519 C.ar    1  ZINC000498646479   -0.1200
     21 C21        -9.0500   -1.0168   62.2862 C.ar    1  ZINC000498646479   -0.1000
     22 C22        -8.9691    0.0295   63.2036 C.ar    1  ZINC000498646479   -0.1200
     23 C23       -10.0821    0.7102   63.5937 C.ar    1  ZINC000498646479   -0.0900
     24 C24       -11.3323    0.3532   63.0640 C.ar    1  ZINC000498646479   -0.1100
     25 C25       -12.5138    1.0184   63.4281 C.ar    1  ZINC000498646479    0.1400
     26 N26       -13.6599    0.6490   62.9055 N.ar    1  ZINC000498646479   -0.4800
     27 C27       -13.7632   -0.3393   62.0279 C.ar    1  ZINC000498646479    0.0800
     28 C28       -10.9206   -1.7458   56.7743 C.3     1  ZINC000498646479    0.1100
     29 C29       -11.2282   -1.1634   55.3907 C.3     1  ZINC000498646479    0.0400
     30 S30        -9.8254    0.6902   52.7725 S.3     1  ZINC000498646479    0.1300
     31 H31        -5.5783    2.0289   50.5654 H       1  ZINC000498646479    0.0600
     32 H32        -5.7673    0.3011   50.9492 H       1  ZINC000498646479    0.0600
     33 H33        -6.9035    1.0941   49.8318 H       1  ZINC000498646479    0.0600
     34 H34        -6.6001    1.7209   52.8037 H       1  ZINC000498646479    0.0800
     35 H35        -7.7363    2.5139   51.6863 H       1  ZINC000498646479    0.0700
     36 H36        -7.0466   -1.1777   51.4864 H       1  ZINC000498646479    0.1400
     37 H37        -9.0040   -2.7180   52.0143 H       1  ZINC000498646479    0.1300
     38 H38       -12.2341   -1.0073   53.0024 H       1  ZINC000498646479    0.0900
     39 H39       -11.6122   -2.5428   52.3514 H       1  ZINC000498646479    0.0500
     40 H40       -13.3290   -2.6343   54.7498 H       1  ZINC000498646479    0.0400
     41 H41       -12.4423   -3.9463   53.9359 H       1  ZINC000498646479    0.1000
     42 H42       -12.9904   -4.4500   56.3509 H       1  ZINC000498646479    0.1000
     43 H43       -11.2419   -4.4795   56.0010 H       1  ZINC000498646479    0.0800
     44 H44       -12.8964    0.3653   59.5255 H       1  ZINC000498646479    0.0700
     45 H45       -12.8601   -0.1600   57.8251 H       1  ZINC000498646479    0.0600
     46 H46       -14.2044   -0.6557   58.8813 H       1  ZINC000498646479    0.0700
     47 H47       -13.8743   -2.4711   60.5636 H       1  ZINC000498646479    0.0900
     48 H48       -12.2243   -3.0236   60.9389 H       1  ZINC000498646479    0.0800
     49 H49       -10.2941   -2.2041   61.0425 H       1  ZINC000498646479    0.1400
     50 H50        -8.1507   -1.5389   61.9949 H       1  ZINC000498646479    0.1300
     51 H51        -8.0080    0.3047   63.6120 H       1  ZINC000498646479    0.1300
     52 H52       -10.0037    1.5186   64.3054 H       1  ZINC000498646479    0.1300
     53 H53       -12.4798    1.8325   64.1370 H       1  ZINC000498646479    0.1600
     54 H54       -14.7370   -0.5931   61.6359 H       1  ZINC000498646479    0.1500
     55 H55       -10.9856   -0.9589   57.5256 H       1  ZINC000498646479    0.0900
     56 H56        -9.9190   -2.1759   56.7761 H       1  ZINC000498646479    0.0800
     57 H57       -10.4421   -0.4632   55.1079 H       1  ZINC000498646479    0.0900
     58 H58       -12.1858   -0.6435   55.4197 H       1  ZINC000498646479    0.0400
@<TRIPOS>BOND
     1     1     2    1
     2     1    31    1
     3     1    32    1
     4     1    33    1
     5     2     3    1
     6     2    34    1
     7     2    35    1
     8     3    30    1
     9     3     4    2
    10     4     5    1
    11     4    36    1
    12     5     6    2
    13     5    37    1
    14     6     7    1
    15     6    30    1
    16     7     8    1
    17     7    38    1
    18     7    39    1
    19     8    29    1
    20     8     9    1
    21     9    10    1
    22     9    40    1
    23     9    41    1
    24    10    11    1
    25    10    42    1
    26    10    43    1
    27    11    12   am
    28    11    28    1
    29    12    13    2
    30    12    14    1
    31    14    15    1
    32    14    16    1
    33    14    17    1
    34    16    44    1
    35    16    45    1
    36    16    46    1
    37    17    18    1
    38    17    47    1
    39    17    48    1
    40    18    27   ar
    41    18    19   ar
    42    19    24   ar
    43    19    20   ar
    44    20    21   ar
    45    20    49    1
    46    21    22   ar
    47    21    50    1
    48    22    23   ar
    49    22    51    1
    50    23    24   ar
    51    23    52    1
    52    24    25   ar
    53    25    26   ar
    54    25    53    1
    55    26    27   ar
    56    27    54    1
    57    28    29    1
    58    28    55    1
    59    28    56    1
    60    29    57    1
    61    29    58    1
@<TRIPOS>SUBSTRUCTURE
     1 ZINC000498646479        1 TEMP              0 ****  ****    0 ROOT


##########                                Name:    ZINC001181473921
##########                DOCK_Rotatable_Bonds:                   9
##########                         Heavy_Atoms:                  24
##########                    Molecular_Weight:             357.431
##########                DOCK_Rotatable_Bonds:                   9
##########                       Formal_Charge:        -5.96046e-08
##########                     HBond_Acceptors:                   9
##########                        HBond_Donors:                   4
##########                         Heavy_Atoms:                  24
##########                          Grid_Score:          -34.154987
##########                     Grid_vdw_energy:          -32.237679
##########                      Grid_es_energy:           -1.917310
##########           Internal_energy_repulsive:           15.628700

@<TRIPOS>MOLECULE
ZINC001181473921
 47 48 1 0 0
SMALL
USER_CHARGES


@<TRIPOS>ATOM
      1 C1        -12.1516    1.0876   61.7129 C.3     1  ZINC001181473921   -0.1300
      2 C2        -10.9502    0.2362   62.0335 C.2     1  ZINC001181473921    0.1900
      3 C3        -10.1072    0.6169   63.0171 C.2     1  ZINC001181473921   -0.2400
      4 C4         -8.9825   -0.1756   63.3217 C.2     1  ZINC001181473921    0.2500
      5 O5         -8.1278    0.1928   64.3058 O.3     1  ZINC001181473921   -0.4600
      6 C6         -8.7651   -1.3350   62.6006 C.2     1  ZINC001181473921   -0.3700
      7 C7         -9.6671   -1.6882   61.5902 C.2     1  ZINC001181473921    0.5300
      8 O8         -9.4894   -2.7094   60.9445 O.2     1  ZINC001181473921   -0.5500
      9 N9        -10.7328   -0.9075   61.3326 N.am    1  ZINC001181473921   -0.5000
     10 C10       -11.6677   -1.2915   60.2720 C.3     1  ZINC001181473921    0.1000
     11 C11       -12.7653   -2.1821   60.8576 C.3     1  ZINC001181473921   -0.1600
     12 C12       -13.5381   -2.8294   59.7373 C.2     1  ZINC001181473921    0.5200
     13 O13       -14.6128   -3.3451   59.9609 O.2     1  ZINC001181473921   -0.5300
     14 N14       -13.0349   -2.8352   58.4870 N.am    1  ZINC001181473921   -0.7200
     15 C15       -13.7854   -3.4660   57.3983 C.3     1  ZINC001181473921    0.1400
     16 H16       -14.8578   -3.4025   57.5829 H       1  ZINC001181473921    0.1000
     17 C17       -13.3469   -4.9398   57.2114 C.3     1  ZINC001181473921   -0.1300
     18 C18       -13.7147   -5.2611   55.7481 C.3     1  ZINC001181473921   -0.1500
     19 C19       -13.7610   -3.9167   55.0011 C.3     1  ZINC001181473921   -0.0800
     20 H20       -14.7591   -3.7486   54.5965 H       1  ZINC001181473921    0.0900
     21 C21       -12.7298   -3.9094   53.8708 C.3     1  ZINC001181473921   -0.6200
     22 S22       -13.0322   -2.4879   52.7854 S.o2    1  ZINC001181473921    2.6100
     23 N23       -14.5338   -2.7682   52.1461 N.am    1  ZINC001181473921   -1.2500
     24 O24       -13.1930   -1.3014   53.5507 O.2     1  ZINC001181473921   -0.9600
     25 O25       -12.1613   -2.5233   51.6631 O.2     1  ZINC001181473921   -0.9600
     26 C26       -13.4235   -2.8218   56.0370 C.3     1  ZINC001181473921   -0.1200
     27 H27       -13.0547    0.4807   61.7778 H       1  ZINC001181473921    0.0900
     28 H28       -12.2145    1.9100   62.4255 H       1  ZINC001181473921    0.1000
     29 H29       -12.0544    1.4878   60.7038 H       1  ZINC001181473921    0.0900
     30 H30       -10.2943    1.5264   63.5687 H       1  ZINC001181473921    0.1500
     31 H31        -7.4369   -0.4580   64.4907 H       1  ZINC001181473921    0.4100
     32 H32        -7.9104   -1.9598   62.8140 H       1  ZINC001181473921    0.1500
     33 H33       -12.1170   -0.3963   59.8421 H       1  ZINC001181473921    0.1000
     34 H34       -11.1320   -1.8379   59.4957 H       1  ZINC001181473921    0.1100
     35 H35       -12.3133   -2.9540   61.4804 H       1  ZINC001181473921    0.1100
     36 H36       -13.4406   -1.5766   61.4621 H       1  ZINC001181473921    0.1000
     37 H37       -12.1759   -2.4218   58.3080 H       1  ZINC001181473921    0.4000
     38 H38       -12.2726   -5.0407   57.3657 H       1  ZINC001181473921    0.0700
     39 H39       -13.8941   -5.5901   57.8939 H       1  ZINC001181473921    0.0800
     40 H40       -12.9570   -5.9081   55.3061 H       1  ZINC001181473921    0.0900
     41 H41       -14.6903   -5.7455   55.7061 H       1  ZINC001181473921    0.0800
     42 H42       -11.7277   -3.8370   54.2938 H       1  ZINC001181473921    0.1400
     43 H43       -12.8154   -4.8310   53.2950 H       1  ZINC001181473921    0.1400
     44 H44       -14.9225   -2.1333   51.5243 H       1  ZINC001181473921    0.4100
     45 H45       -15.0249   -3.5674   52.3935 H       1  ZINC001181473921    0.4200
     46 H46       -14.0249   -1.9303   55.8594 H       1  ZINC001181473921    0.0800
     47 H47       -12.3613   -2.5795   56.0036 H       1  ZINC001181473921    0.0800
@<TRIPOS>BOND
     1     1     2    1
     2     1    27    1
     3     1    28    1
     4     1    29    1
     5     2     9    1
     6     2     3    2
     7     3     4    1
     8     3    30    1
     9     4     5    1
    10     4     6    2
    11     5    31    1
    12     6     7    1
    13     6    32    1
    14     7     8    2
    15     7     9   am
    16     9    10    1
    17    10    11    1
    18    10    33    1
    19    10    34    1
    20    11    12    1
    21    11    35    1
    22    11    36    1
    23    12    13    2
    24    12    14   am
    25    14    15    1
    26    14    37    1
    27    15    16    1
    28    15    26    1
    29    15    17    1
    30    17    18    1
    31    17    38    1
    32    17    39    1
    33    18    19    1
    34    18    40    1
    35    18    41    1
    36    19    20    1
    37    19    21    1
    38    19    26    1
    39    21    22    1
    40    21    42    1
    41    21    43    1
    42    22    23   am
    43    22    24    2
    44    22    25    2
    45    23    44    1
    46    23    45    1
    47    26    46    1
    48    26    47    1
@<TRIPOS>SUBSTRUCTURE
     1 ZINC001181473921        1 TEMP              0 ****  ****    0 ROOT


##########                                Name:    ZINC000541568816
##########                DOCK_Rotatable_Bonds:                   8
##########                         Heavy_Atoms:                  25
##########                    Molecular_Weight:             411.339
##########                DOCK_Rotatable_Bonds:                   8
##########                       Formal_Charge:          -0.0100007
##########                     HBond_Acceptors:                   5
##########                        HBond_Donors:                   1
##########                         Heavy_Atoms:                  25
##########                          Grid_Score:          -34.150948
##########                     Grid_vdw_energy:          -33.253044
##########                      Grid_es_energy:           -0.897905
##########           Internal_energy_repulsive:           16.736292

@<TRIPOS>MOLECULE
ZINC000541568816
 52 54 1 0 0
SMALL
USER_CHARGES


@<TRIPOS>ATOM
      1 C1         -7.3032    2.3072   57.1088 C.3     1  ZINC000541568816   -0.1500
      2 C2         -8.6929    1.7145   56.8667 C.3     1  ZINC000541568816    0.0600
      3 O3         -8.9091    0.6248   57.7654 O.3     1  ZINC000541568816   -0.3700
      4 C4         -9.8749   -0.3236   57.3072 C.3     1  ZINC000541568816    0.0700
      5 H5         -9.6300   -0.7391   56.3298 H       1  ZINC000541568816    0.0900
      6 C6        -11.3277    0.1711   57.4210 C.3     1  ZINC000541568816   -0.1700
      7 C7        -11.6943   -1.2488   57.8876 C.3     1  ZINC000541568816    0.1500
      8 H8        -12.4175   -1.2679   58.7029 H       1  ZINC000541568816    0.1100
      9 N9        -12.0477   -2.1544   56.7916 N.am    1  ZINC000541568816   -0.7200
     10 C10       -13.0689   -3.0219   56.9370 C.2     1  ZINC000541568816    0.7100
     11 O11       -13.6978   -3.0518   57.9772 O.2     1  ZINC000541568816   -0.5800
     12 N12       -13.3930   -3.8562   55.9293 N.am    1  ZINC000541568816   -0.6300
     13 C13       -14.5019   -4.8004   56.0879 C.3     1  ZINC000541568816    0.1000
     14 C14       -14.0354   -6.0008   56.9140 C.3     1  ZINC000541568816   -0.1800
     15 C15       -12.6364   -3.8188   54.6753 C.3     1  ZINC000541568816    0.1700
     16 C16       -13.1738   -2.7185   53.7970 C.ar    1  ZINC000541568816   -0.0700
     17 C17       -14.4709   -2.2718   53.9645 C.ar    1  ZINC000541568816   -0.1000
     18 C18       -14.9641   -1.2623   53.1587 C.ar    1  ZINC000541568816   -0.1000
     19 C19       -14.1601   -0.6991   52.1856 C.ar    1  ZINC000541568816   -0.1200
     20 C20       -12.8625   -1.1453   52.0173 C.ar    1  ZINC000541568816   -0.0900
     21 C21       -12.3671   -2.1515   52.8266 C.ar    1  ZINC000541568816   -0.0900
     22 Br22      -10.5922   -2.7623   52.5970 Br      1  ZINC000541568816   -0.0500
     23 C23       -10.2386   -1.3835   58.3517 C.3     1  ZINC000541568816    0.0800
     24 C24        -9.9889   -0.9581   59.8091 C.3     1  ZINC000541568816   -0.1200
     25 C25        -9.7113   -2.3213   60.5021 C.3     1  ZINC000541568816   -0.1600
     26 C26        -8.9973   -3.0927   59.3630 C.3     1  ZINC000541568816    0.0500
     27 O27        -9.6503   -2.6676   58.1539 O.3     1  ZINC000541568816   -0.3600
     28 H28        -7.2346    2.6645   58.1363 H       1  ZINC000541568816    0.0600
     29 H29        -6.5469    1.5409   56.9393 H       1  ZINC000541568816    0.0600
     30 H30        -7.1383    3.1385   56.4233 H       1  ZINC000541568816    0.0700
     31 H31        -9.4493    2.4809   57.0362 H       1  ZINC000541568816    0.0500
     32 H32        -8.7616    1.3573   55.8392 H       1  ZINC000541568816    0.0500
     33 H33       -11.4705    0.9328   58.1876 H       1  ZINC000541568816    0.1000
     34 H34       -11.7719    0.4442   56.4639 H       1  ZINC000541568816    0.0800
     35 H35       -11.5468   -2.1297   55.9614 H       1  ZINC000541568816    0.4000
     36 H36       -15.3288   -4.3071   56.5987 H       1  ZINC000541568816    0.0900
     37 H37       -14.8322   -5.1410   55.1065 H       1  ZINC000541568816    0.0700
     38 H38       -13.7051   -5.6602   57.8953 H       1  ZINC000541568816    0.0600
     39 H39       -14.8604   -6.7033   57.0320 H       1  ZINC000541568816    0.0700
     40 H40       -13.2084   -6.4940   56.4033 H       1  ZINC000541568816    0.0600
     41 H41       -11.5847   -3.6305   54.8911 H       1  ZINC000541568816    0.1000
     42 H42       -12.7364   -4.7751   54.1620 H       1  ZINC000541568816    0.1100
     43 H43       -15.0995   -2.7116   54.7247 H       1  ZINC000541568816    0.1300
     44 H44       -15.9780   -0.9139   53.2893 H       1  ZINC000541568816    0.1300
     45 H45       -14.5458    0.0894   51.5563 H       1  ZINC000541568816    0.1300
     46 H46       -12.2345   -0.7055   51.2567 H       1  ZINC000541568816    0.1300
     47 H47        -9.1215   -0.3019   59.8797 H       1  ZINC000541568816    0.1000
     48 H48       -10.8725   -0.4797   60.2315 H       1  ZINC000541568816    0.0900
     49 H49        -9.0552   -2.1973   61.3637 H       1  ZINC000541568816    0.0900
     50 H50       -10.6412   -2.8136   60.7868 H       1  ZINC000541568816    0.0800
     51 H51        -7.9397   -2.8307   59.3338 H       1  ZINC000541568816    0.0600
     52 H52        -9.1179   -4.1673   59.5003 H       1  ZINC000541568816    0.0900
@<TRIPOS>BOND
     1     1     2    1
     2     1    28    1
     3     1    29    1
     4     1    30    1
     5     2     3    1
     6     2    31    1
     7     2    32    1
     8     3     4    1
     9     4     5    1
    10     4    23    1
    11     4     6    1
    12     6     7    1
    13     6    33    1
    14     6    34    1
    15     7     8    1
    16     7     9    1
    17     7    23    1
    18     9    10   am
    19     9    35    1
    20    10    11    2
    21    10    12   am
    22    12    13    1
    23    12    15    1
    24    13    14    1
    25    13    36    1
    26    13    37    1
    27    14    38    1
    28    14    39    1
    29    14    40    1
    30    15    16    1
    31    15    41    1
    32    15    42    1
    33    16    21   ar
    34    16    17   ar
    35    17    18   ar
    36    17    43    1
    37    18    19   ar
    38    18    44    1
    39    19    20   ar
    40    19    45    1
    41    20    21   ar
    42    20    46    1
    43    21    22    1
    44    23    27    1
    45    23    24    1
    46    24    25    1
    47    24    47    1
    48    24    48    1
    49    25    26    1
    50    25    49    1
    51    25    50    1
    52    26    27    1
    53    26    51    1
    54    26    52    1
@<TRIPOS>SUBSTRUCTURE
     1 ZINC000541568816        1 TEMP              0 ****  ****    0 ROOT


##########                                Name:    ZINC000533131987
##########                DOCK_Rotatable_Bonds:                  11
##########                         Heavy_Atoms:                  30
##########                    Molecular_Weight:             419.403
##########                DOCK_Rotatable_Bonds:                  11
##########                       Formal_Charge:                0.01
##########                     HBond_Acceptors:                   9
##########                        HBond_Donors:                   3
##########                         Heavy_Atoms:                  30
##########                          Grid_Score:          -34.130211
##########                     Grid_vdw_energy:          -31.559725
##########                      Grid_es_energy:           -2.570486
##########           Internal_energy_repulsive:           28.068687

@<TRIPOS>MOLECULE
ZINC000533131987
 50 52 1 0 0
SMALL
USER_CHARGES


@<TRIPOS>ATOM
      1 O1        -10.9905   -2.7708   58.9852 O.2     1  ZINC000533131987   -0.5700
      2 C2        -11.9932   -2.2643   59.4505 C.2     1  ZINC000533131987    0.7100
      3 N3        -11.9010   -1.4389   60.5119 N.am    1  ZINC000533131987   -0.7400
      4 C4        -10.5933   -1.1564   61.1087 C.3     1  ZINC000533131987    0.1400
      5 C5        -10.7802   -0.3106   62.3698 C.3     1  ZINC000533131987   -0.0900
      6 H6        -11.3257   -0.8875   63.1167 H       1  ZINC000533131987    0.0900
      7 C7         -9.4109    0.0815   62.9285 C.3     1  ZINC000533131987    0.0800
      8 O8         -8.5561   -1.0637   62.9415 O.3     1  ZINC000533131987   -0.5600
      9 C9        -11.5707    0.9530   62.0241 C.3     1  ZINC000533131987   -0.0900
     10 C10       -11.7106    1.8106   63.2553 C.ar    1  ZINC000533131987    0.0000
     11 C11       -10.6937    2.6751   63.6145 C.ar    1  ZINC000533131987   -0.1100
     12 C12       -10.8220    3.4619   64.7440 C.ar    1  ZINC000533131987   -0.0800
     13 C13       -11.9673    3.3844   65.5138 C.ar    1  ZINC000533131987   -0.1300
     14 C14       -12.9849    2.5203   65.1540 C.ar    1  ZINC000533131987   -0.0700
     15 C15       -12.8584    1.7368   64.0225 C.ar    1  ZINC000533131987   -0.1700
     16 C16       -13.9676    0.7951   63.6302 C.3     1  ZINC000533131987    0.5100
     17 F17       -14.5354    1.2198   62.4243 F       1  ZINC000533131987   -0.1800
     18 F18       -13.4502   -0.4952   63.4732 F       1  ZINC000533131987   -0.1700
     19 F19       -14.9471    0.7863   64.6293 F       1  ZINC000533131987   -0.1800
     20 N20       -13.1963   -2.5242   58.9014 N.am    1  ZINC000533131987   -0.6900
     21 C21       -13.2921   -3.3815   57.7992 C.ar    1  ZINC000533131987    0.1600
     22 C22       -14.0321   -4.5538   57.8931 C.ar    1  ZINC000533131987   -0.1000
     23 C23       -14.1298   -5.4040   56.8072 C.ar    1  ZINC000533131987   -0.1000
     24 C24       -13.4933   -5.0939   55.6230 C.ar    1  ZINC000533131987   -0.1000
     25 C25       -12.7474   -3.9183   55.5185 C.ar    1  ZINC000533131987    0.0000
     26 C26       -12.0647   -3.5834   54.2506 C.2     1  ZINC000533131987    0.2300
     27 N27       -10.7756   -3.6808   54.0256 N.2     1  ZINC000533131987   -0.4700
     28 C28       -10.5294   -3.2908   52.7658 C.2     1  ZINC000533131987   -0.0400
     29 C29       -11.7025   -2.9449   52.2047 C.2     1  ZINC000533131987   -0.0700
     30 O30       -12.6611   -3.1334   53.1331 O.3     1  ZINC000533131987   -0.2000
     31 C31       -12.6535   -3.0581   56.6119 C.ar    1  ZINC000533131987   -0.1000
     32 H32       -12.7006   -1.0318   60.8806 H       1  ZINC000533131987    0.4000
     33 H33       -10.1028   -2.0942   61.3696 H       1  ZINC000533131987    0.0700
     34 H34        -9.9775   -0.6111   60.3934 H       1  ZINC000533131987    0.0800
     35 H35        -8.9707    0.8563   62.3008 H       1  ZINC000533131987    0.0400
     36 H36        -9.5274    0.4594   63.9442 H       1  ZINC000533131987    0.0600
     37 H37        -7.6971   -0.9087   63.3579 H       1  ZINC000533131987    0.3800
     38 H38       -11.0433    1.5111   61.2504 H       1  ZINC000533131987    0.0800
     39 H39       -12.5600    0.6746   61.6608 H       1  ZINC000533131987    0.0900
     40 H40        -9.7987    2.7356   63.0129 H       1  ZINC000533131987    0.1300
     41 H41       -10.0271    4.1369   65.0251 H       1  ZINC000533131987    0.1300
     42 H42       -12.0673    3.9984   66.3966 H       1  ZINC000533131987    0.1300
     43 H43       -13.8797    2.4595   65.7557 H       1  ZINC000533131987    0.1300
     44 H44       -13.9959   -2.1172   59.2701 H       1  ZINC000533131987    0.4100
     45 H45       -14.5322   -4.8019   58.8176 H       1  ZINC000533131987    0.1500
     46 H46       -14.7061   -6.3139   56.8863 H       1  ZINC000533131987    0.1400
     47 H47       -13.5717   -5.7607   54.7771 H       1  ZINC000533131987    0.1300
     48 H48        -9.5618   -3.2599   52.2871 H       1  ZINC000533131987    0.1900
     49 H49       -11.8491   -2.5867   51.1965 H       1  ZINC000533131987    0.2200
     50 H50       -12.0780   -2.1473   56.5371 H       1  ZINC000533131987    0.1400
@<TRIPOS>BOND
     1     1     2    2
     2     2     3   am
     3     2    20   am
     4     3     4    1
     5     3    32    1
     6     4     5    1
     7     4    33    1
     8     4    34    1
     9     5     6    1
    10     5     7    1
    11     5     9    1
    12     7     8    1
    13     7    35    1
    14     7    36    1
    15     8    37    1
    16     9    10    1
    17     9    38    1
    18     9    39    1
    19    10    15   ar
    20    10    11   ar
    21    11    12   ar
    22    11    40    1
    23    12    13   ar
    24    12    41    1
    25    13    14   ar
    26    13    42    1
    27    14    15   ar
    28    14    43    1
    29    15    16    1
    30    16    17    1
    31    16    18    1
    32    16    19    1
    33    20    21    1
    34    20    44    1
    35    21    31   ar
    36    21    22   ar
    37    22    23   ar
    38    22    45    1
    39    23    24   ar
    40    23    46    1
    41    24    25   ar
    42    24    47    1
    43    25    26    1
    44    25    31   ar
    45    26    30    1
    46    26    27    2
    47    27    28    1
    48    28    29    2
    49    28    48    1
    50    29    30    1
    51    29    49    1
    52    31    50    1
@<TRIPOS>SUBSTRUCTURE
     1 ZINC000533131987        1 TEMP              0 ****  ****    0 ROOT


##########                                Name:    ZINC000530457945
##########                DOCK_Rotatable_Bonds:                   4
##########                         Heavy_Atoms:                  25
##########                    Molecular_Weight:             355.827
##########                DOCK_Rotatable_Bonds:                   4
##########                       Formal_Charge:           0.0199997
##########                     HBond_Acceptors:                   7
##########                        HBond_Donors:                   1
##########                         Heavy_Atoms:                  25
##########                          Grid_Score:          -34.124493
##########                     Grid_vdw_energy:          -33.954525
##########                      Grid_es_energy:           -0.169968
##########           Internal_energy_repulsive:           32.272335

@<TRIPOS>MOLECULE
ZINC000530457945
 43 46 1 0 0
SMALL
USER_CHARGES


@<TRIPOS>ATOM
      1 C1         -2.6531    1.4770   47.3417 C.3     1  ZINC000530457945   -0.1700
      2 C2         -2.2168    1.2977   48.7972 C.3     1  ZINC000530457945    0.0900
      3 H3         -2.5903    0.3487   49.1819 H       1  ZINC000530457945    0.1100
      4 C4         -2.7577    2.4613   49.6546 C.3     1  ZINC000530457945   -0.1200
      5 H5         -2.9600    3.3349   49.0350 H       1  ZINC000530457945    0.1100
      6 C6         -3.9977    2.0413   50.4011 C.2     1  ZINC000530457945    0.5300
      7 O7         -4.2229    2.4914   51.5044 O.2     1  ZINC000530457945   -0.4700
      8 N8         -4.8563    1.1654   49.8423 N.am    1  ZINC000530457945   -0.6200
      9 C9         -6.0047    0.7749   50.5347 C.2     1  ZINC000530457945    0.4800
     10 N10        -6.4494   -0.4614   50.6343 N.2     1  ZINC000530457945   -0.3000
     11 N11        -7.6183   -0.4173   51.4076 N.pl3   1  ZINC000530457945   -0.2800
     12 C12        -8.4881   -1.3723   51.8301 C.2     1  ZINC000530457945    0.1400
     13 C13        -9.5611   -1.0405   52.5851 C.2     1  ZINC000530457945   -0.0800
     14 Cl14      -10.6612   -2.2741   53.1155 Cl      1  ZINC000530457945   -0.0200
     15 C15        -9.7864    0.2980   52.9407 C.2     1  ZINC000530457945   -0.0500
     16 C16        -8.9188    1.2609   52.5214 C.2     1  ZINC000530457945   -0.0900
     17 C17        -7.8105    0.8942   51.7374 C.2     1  ZINC000530457945    0.3000
     18 N18        -6.8149    1.5922   51.1999 N.2     1  ZINC000530457945   -0.5500
     19 C19        -1.5907    2.7436   50.6369 C.3     1  ZINC000530457945   -0.1200
     20 C20        -0.3557    2.4793   49.7399 C.3     1  ZINC000530457945    0.0400
     21 N21        -0.7455    1.3313   48.8877 N.3     1  ZINC000530457945   -0.4900
     22 C22        -0.1683    1.4306   47.6196 C.ar    1  ZINC000530457945    0.1000
     23 C23        -0.1561    2.6497   46.9539 C.ar    1  ZINC000530457945   -0.1600
     24 C24         0.4159    2.7444   45.7004 C.ar    1  ZINC000530457945   -0.1100
     25 C25         0.9756    1.6273   45.1078 C.ar    1  ZINC000530457945   -0.1300
     26 C26         0.9650    0.4122   45.7678 C.ar    1  ZINC000530457945   -0.1100
     27 C27         0.3999    0.3117   47.0239 C.ar    1  ZINC000530457945   -0.1000
     28 H28        -2.1669    0.7241   46.7214 H       1  ZINC000530457945    0.0700
     29 H29        -3.7348    1.3636   47.2700 H       1  ZINC000530457945    0.0600
     30 H30        -2.3683    2.4711   46.9969 H       1  ZINC000530457945    0.0600
     31 H31        -4.6768    0.8063   48.9593 H       1  ZINC000530457945    0.4300
     32 H32        -8.3217   -2.4048   51.5607 H       1  ZINC000530457945    0.1800
     33 H33       -10.6427    0.5633   53.5429 H       1  ZINC000530457945    0.1600
     34 H34        -9.0807    2.2949   52.7877 H       1  ZINC000530457945    0.1700
     35 H35        -1.6102    3.7782   50.9794 H       1  ZINC000530457945    0.0900
     36 H36        -1.6151    2.0541   51.4807 H       1  ZINC000530457945    0.0900
     37 H37        -0.1389    3.3532   49.1255 H       1  ZINC000530457945    0.0700
     38 H38         0.5087    2.2200   50.3510 H       1  ZINC000530457945    0.0900
     39 H39        -0.5936    3.5224   47.4157 H       1  ZINC000530457945    0.1200
     40 H40         0.4258    3.6919   45.1822 H       1  ZINC000530457945    0.1200
     41 H41         1.4216    1.7039   44.1272 H       1  ZINC000530457945    0.1200
     42 H42         1.4030   -0.4584   45.3022 H       1  ZINC000530457945    0.1300
     43 H43         0.3922   -0.6375   47.5389 H       1  ZINC000530457945    0.1300
@<TRIPOS>BOND
     1     1     2    1
     2     1    28    1
     3     1    29    1
     4     1    30    1
     5     2     3    1
     6     2    21    1
     7     2     4    1
     8     4     5    1
     9     4     6    1
    10     4    19    1
    11     6     7    2
    12     6     8   am
    13     8     9    1
    14     8    31    1
    15     9    18    1
    16     9    10    2
    17    10    11    1
    18    11    17    1
    19    11    12    1
    20    12    13    2
    21    12    32    1
    22    13    14    1
    23    13    15    1
    24    15    16    2
    25    15    33    1
    26    16    17    1
    27    16    34    1
    28    17    18    2
    29    19    20    1
    30    19    35    1
    31    19    36    1
    32    20    21    1
    33    20    37    1
    34    20    38    1
    35    21    22    1
    36    22    27   ar
    37    22    23   ar
    38    23    24   ar
    39    23    39    1
    40    24    25   ar
    41    24    40    1
    42    25    26   ar
    43    25    41    1
    44    26    27   ar
    45    26    42    1
    46    27    43    1
@<TRIPOS>SUBSTRUCTURE
     1 ZINC000530457945        1 TEMP              0 ****  ****    0 ROOT


##########                                Name:    ZINC000846412382
##########                DOCK_Rotatable_Bonds:                   6
##########                         Heavy_Atoms:                  26
##########                    Molecular_Weight:             370.475
##########                DOCK_Rotatable_Bonds:                   6
##########                       Formal_Charge:               -0.03
##########                     HBond_Acceptors:                   7
##########                        HBond_Donors:                   4
##########                         Heavy_Atoms:                  26
##########                          Grid_Score:          -34.109783
##########                     Grid_vdw_energy:          -33.849834
##########                      Grid_es_energy:           -0.259948
##########           Internal_energy_repulsive:           22.773035

@<TRIPOS>MOLECULE
ZINC000846412382
 48 50 1 0 0
SMALL
USER_CHARGES


@<TRIPOS>ATOM
      1 C1        -12.9842   -2.3075   59.6220 C.3     1  ZINC000846412382   -0.1400
      2 C2        -11.5129   -2.1089   59.8806 C.2     1  ZINC000846412382    0.0300
      3 C3        -10.5716   -2.5944   59.0613 C.2     1  ZINC000846412382   -0.2700
      4 C4        -10.8428   -3.3615   57.8394 C.2     1  ZINC000846412382    0.6000
      5 O5        -10.4094   -4.4923   57.7222 O.2     1  ZINC000846412382   -0.5200
      6 N6        -11.5721   -2.8132   56.8475 N.am    1  ZINC000846412382   -0.7100
      7 C7        -11.8414   -3.5781   55.6274 C.3     1  ZINC000846412382    0.1200
      8 H8        -10.9268   -4.0717   55.2986 H       1  ZINC000846412382    0.1000
      9 C9        -12.9150   -4.6306   55.9117 C.3     1  ZINC000846412382   -0.1700
     10 C10       -12.3329   -2.6319   54.5302 C.3     1  ZINC000846412382    0.1700
     11 C11       -13.3673   -1.6675   55.1141 C.3     1  ZINC000846412382   -0.1400
     12 O12       -12.9310   -3.3920   53.4782 O.3     1  ZINC000846412382   -0.5500
     13 C13       -11.1676   -1.8480   53.9837 C.ar    1  ZINC000846412382   -0.1200
     14 C14       -10.7518   -0.6935   54.6204 C.ar    1  ZINC000846412382   -0.1100
     15 C15        -9.6829    0.0256   54.1191 C.ar    1  ZINC000846412382   -0.1200
     16 C16        -9.0294   -0.4101   52.9816 C.ar    1  ZINC000846412382   -0.1200
     17 C17        -9.4447   -1.5651   52.3455 C.ar    1  ZINC000846412382   -0.1200
     18 C18       -10.5109   -2.2864   52.8492 C.ar    1  ZINC000846412382   -0.1000
     19 S19        -8.9686   -2.1868   59.6495 S.3     1  ZINC000846412382    0.2000
     20 C20        -9.6392   -1.3403   61.0372 C.ar    1  ZINC000846412382    0.1400
     21 N21        -9.0473   -0.6949   62.0486 N.ar    1  ZINC000846412382   -0.5300
     22 C22        -9.7559   -0.1235   62.9955 C.ar    1  ZINC000846412382    0.3900
     23 C23        -9.0383    0.5909   64.1115 C.3     1  ZINC000846412382   -0.0900
     24 N24       -11.0762   -0.1538   63.0020 N.ar    1  ZINC000846412382   -0.5800
     25 C25       -11.7550   -0.7677   62.0447 C.ar    1  ZINC000846412382    0.5100
     26 N26       -13.1348   -0.7895   62.0673 N.pl3   1  ZINC000846412382   -0.8300
     27 C27       -11.0390   -1.4000   60.9893 C.ar    1  ZINC000846412382   -0.2500
     28 H28       -13.3808   -1.4394   59.0955 H       1  ZINC000846412382    0.0800
     29 H29       -13.1288   -3.1995   59.0126 H       1  ZINC000846412382    0.1100
     30 H30       -13.5069   -2.4270   60.5710 H       1  ZINC000846412382    0.0700
     31 H31       -11.9188   -1.9121   56.9414 H       1  ZINC000846412382    0.4000
     32 H32       -13.8296   -4.1370   56.2404 H       1  ZINC000846412382    0.0600
     33 H33       -13.1153   -5.1997   55.0040 H       1  ZINC000846412382    0.0800
     34 H34       -12.5648   -5.3047   56.6934 H       1  ZINC000846412382    0.0700
     35 H35       -12.9112   -1.0877   55.9165 H       1  ZINC000846412382    0.0700
     36 H36       -13.7176   -0.9934   54.3325 H       1  ZINC000846412382    0.0700
     37 H37       -14.2102   -2.2345   55.5094 H       1  ZINC000846412382    0.0700
     38 H38       -13.2844   -2.8542   52.7564 H       1  ZINC000846412382    0.3800
     39 H39       -11.2624   -0.3532   55.5091 H       1  ZINC000846412382    0.1300
     40 H40        -9.3586    0.9279   54.6161 H       1  ZINC000846412382    0.1200
     41 H41        -8.1948    0.1521   52.5896 H       1  ZINC000846412382    0.1200
     42 H42        -8.9344   -1.9052   51.4565 H       1  ZINC000846412382    0.1200
     43 H43       -10.8353   -3.1887   52.3521 H       1  ZINC000846412382    0.1300
     44 H44        -8.8883    1.6352   63.8372 H       1  ZINC000846412382    0.0900
     45 H45        -9.6361    0.5365   65.0213 H       1  ZINC000846412382    0.0900
     46 H46        -8.0715    0.1179   64.2833 H       1  ZINC000846412382    0.0900
     47 H47       -13.6084   -0.6534   62.9028 H       1  ZINC000846412382    0.4100
     48 H48       -13.6308   -0.9409   61.2476 H       1  ZINC000846412382    0.4200
@<TRIPOS>BOND
     1     1     2    1
     2     1    28    1
     3     1    29    1
     4     1    30    1
     5     2    27    1
     6     2     3    2
     7     3     4    1
     8     3    19    1
     9     4     5    2
    10     4     6   am
    11     6     7    1
    12     6    31    1
    13     7     8    1
    14     7     9    1
    15     7    10    1
    16     9    32    1
    17     9    33    1
    18     9    34    1
    19    10    11    1
    20    10    12    1
    21    10    13    1
    22    11    35    1
    23    11    36    1
    24    11    37    1
    25    12    38    1
    26    13    18   ar
    27    13    14   ar
    28    14    15   ar
    29    14    39    1
    30    15    16   ar
    31    15    40    1
    32    16    17   ar
    33    16    41    1
    34    17    18   ar
    35    17    42    1
    36    18    43    1
    37    19    20    1
    38    20    27   ar
    39    20    21   ar
    40    21    22   ar
    41    22    23    1
    42    22    24   ar
    43    23    44    1
    44    23    45    1
    45    23    46    1
    46    24    25   ar
    47    25    26    1
    48    25    27   ar
    49    26    47    1
    50    26    48    1
@<TRIPOS>SUBSTRUCTURE
     1 ZINC000846412382        1 TEMP              0 ****  ****    0 ROOT


##########                                Name:    ZINC000851838607
##########                DOCK_Rotatable_Bonds:                  12
##########                         Heavy_Atoms:                  23
##########                    Molecular_Weight:             352.495
##########                DOCK_Rotatable_Bonds:                  12
##########                       Formal_Charge:          0.00999896
##########                     HBond_Acceptors:                   8
##########                        HBond_Donors:                   2
##########                         Heavy_Atoms:                  23
##########                          Grid_Score:          -34.098816
##########                     Grid_vdw_energy:          -33.607208
##########                      Grid_es_energy:           -0.491608
##########           Internal_energy_repulsive:           23.707211

@<TRIPOS>MOLECULE
ZINC000851838607
 55 54 1 0 0
SMALL
USER_CHARGES


@<TRIPOS>ATOM
      1 C1         -7.9650   -0.2862   52.3066 C.3     1  ZINC000851838607    0.0300
      2 O2         -9.1926   -0.8801   52.7337 O.3     1  ZINC000851838607   -0.3800
      3 C3        -10.3245   -0.0139   52.6296 C.3     1  ZINC000851838607    0.0800
      4 C4        -11.5764   -0.7508   53.1099 C.3     1  ZINC000851838607   -0.6000
      5 H5        -11.4493   -1.0416   54.1527 H       1  ZINC000851838607    0.1400
      6 C6        -12.7912    0.1706   52.9818 C.3     1  ZINC000851838607   -0.1400
      7 S7        -11.8321   -2.2330   52.0957 S.o2    1  ZINC000851838607    2.6200
      8 O8        -12.4105   -1.8874   50.8447 O.2     1  ZINC000851838607   -0.9400
      9 O9        -10.6994   -3.0879   52.1679 O.2     1  ZINC000851838607   -0.9500
     10 N10       -13.0262   -3.0698   52.8807 N.am    1  ZINC000851838607   -1.1200
     11 C11       -12.8200   -3.5204   54.2592 C.3     1  ZINC000851838607    0.1100
     12 C12       -13.7208   -2.7165   55.1989 C.3     1  ZINC000851838607   -0.1400
     13 C13       -13.4825   -3.1653   56.6420 C.3     1  ZINC000851838607    0.1700
     14 H14       -13.2764   -4.2354   56.6604 H       1  ZINC000851838607    0.1000
     15 N15       -12.3381   -2.4380   57.1968 N.am    1  ZINC000851838607   -0.7100
     16 C16       -11.1964   -3.0949   57.4823 C.2     1  ZINC000851838607    0.6500
     17 O17       -11.1158   -4.2901   57.2783 O.2     1  ZINC000851838607   -0.5600
     18 O18       -10.1453   -2.4269   57.9938 O.3     1  ZINC000851838607   -0.3700
     19 C19        -9.8818   -2.5982   59.4114 C.3     1  ZINC000851838607    0.1400
     20 C20        -8.9213   -1.5065   59.8872 C.3     1  ZINC000851838607   -0.1800
     21 C21       -11.1949   -2.4970   60.1900 C.3     1  ZINC000851838607   -0.1400
     22 C22        -9.2516   -3.9717   59.6507 C.3     1  ZINC000851838607   -0.1800
     23 C23       -14.7284   -2.8713   57.4799 C.3     1  ZINC000851838607   -0.1100
     24 C24       -14.7936   -3.8471   58.6565 C.3     1  ZINC000851838607   -0.1500
     25 C25       -14.6600   -1.4375   58.0097 C.3     1  ZINC000851838607   -0.1400
     26 H26        -8.0489    0.0094   51.2608 H       1  ZINC000851838607    0.0400
     27 H27        -7.7549    0.5924   52.9166 H       1  ZINC000851838607    0.0500
     28 H28        -7.1550   -1.0072   52.4167 H       1  ZINC000851838607    0.0900
     29 H29       -10.1637    0.8697   53.2472 H       1  ZINC000851838607    0.0700
     30 H30       -10.4567    0.2879   51.5906 H       1  ZINC000851838607    0.0600
     31 H31       -13.6951   -0.3823   53.2374 H       1  ZINC000851838607    0.0700
     32 H32       -12.6787    1.0164   53.6600 H       1  ZINC000851838607    0.0900
     33 H33       -12.8651    0.5340   51.9569 H       1  ZINC000851838607    0.0700
     34 H34       -13.8623   -3.2614   52.4277 H       1  ZINC000851838607    0.4200
     35 H35       -13.0674   -4.5792   54.3362 H       1  ZINC000851838607    0.0700
     36 H36       -11.7772   -3.3699   54.5386 H       1  ZINC000851838607    0.0800
     37 H37       -13.4887   -1.6556   55.1052 H       1  ZINC000851838607    0.0800
     38 H38       -14.7646   -2.8848   54.9337 H       1  ZINC000851838607    0.1000
     39 H39       -12.4020   -1.4838   57.3585 H       1  ZINC000851838607    0.4100
     40 H40        -9.3703   -0.5279   59.7167 H       1  ZINC000851838607    0.0600
     41 H41        -8.7235   -1.6351   60.9513 H       1  ZINC000851838607    0.0700
     42 H42        -7.9858   -1.5786   59.3325 H       1  ZINC000851838607    0.0900
     43 H43       -11.8793   -3.2748   59.8510 H       1  ZINC000851838607    0.0700
     44 H44       -10.9972   -2.6255   61.2542 H       1  ZINC000851838607    0.0800
     45 H45       -11.6439   -1.5185   60.0196 H       1  ZINC000851838607    0.0700
     46 H46        -8.3161   -4.0439   59.0960 H       1  ZINC000851838607    0.0900
     47 H47        -9.0538   -4.1003   60.7149 H       1  ZINC000851838607    0.0700
     48 H48        -9.9359   -4.7495   59.3117 H       1  ZINC000851838607    0.0600
     49 H49       -15.6181   -2.9880   56.8613 H       1  ZINC000851838607    0.0700
     50 H50       -13.9038   -3.7304   59.2751 H       1  ZINC000851838607    0.0600
     51 H51       -15.6812   -3.6376   59.2535 H       1  ZINC000851838607    0.0600
     52 H52       -14.8423   -4.8685   58.2791 H       1  ZINC000851838607    0.0600
     53 H53       -14.6135   -0.7423   57.1715 H       1  ZINC000851838607    0.0500
     54 H54       -15.5475   -1.2281   58.6067 H       1  ZINC000851838607    0.0500
     55 H55       -13.7702   -1.3208   58.6284 H       1  ZINC000851838607    0.0700
@<TRIPOS>BOND
     1     1     2    1
     2     1    26    1
     3     1    27    1
     4     1    28    1
     5     2     3    1
     6     3     4    1
     7     3    29    1
     8     3    30    1
     9     4     5    1
    10     4     6    1
    11     4     7    1
    12     6    31    1
    13     6    32    1
    14     6    33    1
    15     7     8    2
    16     7     9    2
    17     7    10   am
    18    10    11    1
    19    10    34    1
    20    11    12    1
    21    11    35    1
    22    11    36    1
    23    12    13    1
    24    12    37    1
    25    12    38    1
    26    13    14    1
    27    13    15    1
    28    13    23    1
    29    15    16   am
    30    15    39    1
    31    16    17    2
    32    16    18    1
    33    18    19    1
    34    19    20    1
    35    19    21    1
    36    19    22    1
    37    20    40    1
    38    20    41    1
    39    20    42    1
    40    21    43    1
    41    21    44    1
    42    21    45    1
    43    22    46    1
    44    22    47    1
    45    22    48    1
    46    23    24    1
    47    23    25    1
    48    23    49    1
    49    24    50    1
    50    24    51    1
    51    24    52    1
    52    25    53    1
    53    25    54    1
    54    25    55    1
@<TRIPOS>SUBSTRUCTURE
     1 ZINC000851838607        1 TEMP              0 ****  ****    0 ROOT


##########                                Name:    ZINC000505965769
##########                DOCK_Rotatable_Bonds:                   9
##########                         Heavy_Atoms:                  29
##########                    Molecular_Weight:              419.88
##########                DOCK_Rotatable_Bonds:                   9
##########                       Formal_Charge:               -0.02
##########                     HBond_Acceptors:                   7
##########                        HBond_Donors:                   1
##########                         Heavy_Atoms:                  29
##########                          Grid_Score:          -34.093281
##########                     Grid_vdw_energy:          -32.995579
##########                      Grid_es_energy:           -1.097701
##########           Internal_energy_repulsive:           17.761942

@<TRIPOS>MOLECULE
ZINC000505965769
 52 54 1 0 0
SMALL
USER_CHARGES


@<TRIPOS>ATOM
      1 C1         -8.8143   -1.7679   61.0743 C.3     1  ZINC000505965769    0.0200
      2 O2         -9.4452   -3.0492   61.0266 O.3     1  ZINC000505965769   -0.3100
      3 C3        -10.2503   -3.3000   59.9639 C.ar    1  ZINC000505965769    0.1800
      4 C4         -9.8175   -4.1512   58.9525 C.ar    1  ZINC000505965769   -0.2200
      5 C5        -10.6213   -4.4098   57.8791 C.ar    1  ZINC000505965769   -0.0200
      6 C6        -11.8873   -3.8174   57.7929 C.ar    1  ZINC000505965769   -0.2100
      7 C7        -12.7532   -4.0942   56.6406 C.2     1  ZINC000505965769    0.3900
      8 O8        -13.4711   -5.0720   56.6425 O.2     1  ZINC000505965769   -0.4400
      9 C9        -12.7505   -3.1636   55.4553 C.3     1  ZINC000505965769   -0.1500
     10 C10       -13.0329   -3.9609   54.1803 C.3     1  ZINC000505965769   -0.1300
     11 C11       -12.8063   -3.0818   52.9775 C.2     1  ZINC000505965769    0.5200
     12 O12       -11.8137   -3.2299   52.2965 O.2     1  ZINC000505965769   -0.5300
     13 N13       -13.7068   -2.1311   52.6585 N.am    1  ZINC000505965769   -0.7200
     14 C14       -13.4856   -1.2753   51.4902 C.3     1  ZINC000505965769    0.1900
     15 H15       -12.4429   -1.3456   51.1804 H       1  ZINC000505965769    0.1100
     16 C16       -14.3765   -1.7262   50.3614 C.ar    1  ZINC000505965769   -0.1000
     17 C17       -13.9653   -1.5670   49.0512 C.ar    1  ZINC000505965769   -0.0900
     18 C18       -14.7814   -1.9802   48.0153 C.ar    1  ZINC000505965769   -0.1500
     19 C19       -16.0111   -2.5541   48.2901 C.ar    1  ZINC000505965769    0.1000
     20 F20       -16.8096   -2.9588   47.2781 F       1  ZINC000505965769   -0.1400
     21 C21       -16.4217   -2.7135   49.6028 C.ar    1  ZINC000505965769   -0.1500
     22 C22       -15.6017   -2.3040   50.6372 C.ar    1  ZINC000505965769   -0.0600
     23 C23       -13.8138    0.1749   51.8508 C.3     1  ZINC000505965769    0.0800
     24 H24       -13.1514    0.5267   52.6417 H       1  ZINC000505965769    0.0700
     25 C25       -13.6877    1.0817   50.6007 C.3     1  ZINC000505965769   -0.1500
     26 C26       -14.6344    2.2506   50.9875 C.3     1  ZINC000505965769   -0.1600
     27 C27       -15.7340    1.5279   51.7950 C.3     1  ZINC000505965769    0.0500
     28 O28       -15.1856    0.2882   52.2620 O.3     1  ZINC000505965769   -0.3700
     29 C29       -12.3247   -2.9592   58.8119 C.ar    1  ZINC000505965769    0.0500
     30 Cl30      -13.8921   -2.2193   58.7154 Cl      1  ZINC000505965769   -0.0200
     31 C31       -11.5071   -2.7097   59.8927 C.ar    1  ZINC000505965769   -0.1600
     32 H32        -9.5759   -0.9883   61.0936 H       1  ZINC000505965769    0.0600
     33 H33        -8.2005   -1.6983   61.9725 H       1  ZINC000505965769    0.1100
     34 H34        -8.1852   -1.6396   60.1935 H       1  ZINC000505965769    0.0600
     35 H35        -8.8416   -4.6092   59.0162 H       1  ZINC000505965769    0.1400
     36 H36       -10.2803   -5.0712   57.0963 H       1  ZINC000505965769    0.1500
     37 H37       -13.5216   -2.4047   55.5874 H       1  ZINC000505965769    0.1100
     38 H38       -11.7763   -2.6815   55.3740 H       1  ZINC000505965769    0.1100
     39 H39       -12.3639   -4.8203   54.1335 H       1  ZINC000505965769    0.1000
     40 H40       -14.0670   -4.3056   54.1888 H       1  ZINC000505965769    0.1000
     41 H41       -14.5013   -2.0135   53.2025 H       1  ZINC000505965769    0.4000
     42 H42       -13.0061   -1.1192   48.8371 H       1  ZINC000505965769    0.1300
     43 H43       -14.4604   -1.8551   46.9918 H       1  ZINC000505965769    0.1400
     44 H44       -17.3808   -3.1608   49.8183 H       1  ZINC000505965769    0.1400
     45 H45       -15.9217   -2.4285   51.6612 H       1  ZINC000505965769    0.1400
     46 H46       -12.6637    1.4320   50.4712 H       1  ZINC000505965769    0.0700
     47 H47       -14.0417    0.5691   49.7062 H       1  ZINC000505965769    0.1000
     48 H48       -14.1150    2.9815   51.6073 H       1  ZINC000505965769    0.0700
     49 H49       -15.0526    2.7217   50.0981 H       1  ZINC000505965769    0.0800
     50 H50       -16.0326    2.1420   52.6447 H       1  ZINC000505965769    0.0700
     51 H51       -16.5956    1.3348   51.1559 H       1  ZINC000505965769    0.0700
     52 H52       -11.8393   -2.0498   60.6804 H       1  ZINC000505965769    0.1500
@<TRIPOS>BOND
     1     1     2    1
     2     1    32    1
     3     1    33    1
     4     1    34    1
     5     2     3    1
     6     3    31   ar
     7     3     4   ar
     8     4     5   ar
     9     4    35    1
    10     5     6   ar
    11     5    36    1
    12     6     7    1
    13     6    29   ar
    14     7     8    2
    15     7     9    1
    16     9    10    1
    17     9    37    1
    18     9    38    1
    19    10    11    1
    20    10    39    1
    21    10    40    1
    22    11    12    2
    23    11    13   am
    24    13    14    1
    25    13    41    1
    26    14    15    1
    27    14    16    1
    28    14    23    1
    29    16    22   ar
    30    16    17   ar
    31    17    18   ar
    32    17    42    1
    33    18    19   ar
    34    18    43    1
    35    19    20    1
    36    19    21   ar
    37    21    22   ar
    38    21    44    1
    39    22    45    1
    40    23    24    1
    41    23    28    1
    42    23    25    1
    43    25    26    1
    44    25    46    1
    45    25    47    1
    46    26    27    1
    47    26    48    1
    48    26    49    1
    49    27    28    1
    50    27    50    1
    51    27    51    1
    52    29    30    1
    53    29    31   ar
    54    31    52    1
@<TRIPOS>SUBSTRUCTURE
     1 ZINC000505965769        1 TEMP              0 ****  ****    0 ROOT


##########                                Name:    ZINC000062882109
##########                DOCK_Rotatable_Bonds:                   8
##########                         Heavy_Atoms:                  31
##########                    Molecular_Weight:             424.497
##########                DOCK_Rotatable_Bonds:                   8
##########                       Formal_Charge:           0.0299993
##########                     HBond_Acceptors:                   7
##########                        HBond_Donors:                   1
##########                         Heavy_Atoms:                  31
##########                          Grid_Score:          -34.091484
##########                     Grid_vdw_energy:          -32.879417
##########                      Grid_es_energy:           -1.212067
##########           Internal_energy_repulsive:          189.254593

@<TRIPOS>MOLECULE
ZINC000062882109
 59 61 1 0 0
SMALL
USER_CHARGES


@<TRIPOS>ATOM
      1 C1        -13.6993   -5.1489   57.1827 C.3     1  ZINC000062882109   -0.2000
      2 C2        -12.8871   -4.1897   58.0141 C.2     1  ZINC000062882109    0.3900
      3 O3        -11.6787   -4.1751   57.9157 O.2     1  ZINC000062882109   -0.4500
      4 C4        -13.5608   -3.2703   58.9454 C.ar    1  ZINC000062882109   -0.1300
      5 C5        -14.9554   -3.2727   59.0485 C.ar    1  ZINC000062882109   -0.1100
      6 C6        -15.5823   -2.4093   59.9227 C.ar    1  ZINC000062882109   -0.0900
      7 C7        -14.8366   -1.5405   60.6983 C.ar    1  ZINC000062882109   -0.1800
      8 C8        -13.4509   -1.5298   60.6033 C.ar    1  ZINC000062882109    0.1200
      9 O9        -12.7244   -0.6731   61.3686 O.3     1  ZINC000062882109   -0.2800
     10 C10       -11.3118   -0.6508   61.1546 C.3     1  ZINC000062882109    0.0700
     11 H11       -10.9211   -1.6673   61.2003 H       1  ZINC000062882109    0.1000
     12 C12       -10.6454    0.2009   62.2370 C.3     1  ZINC000062882109   -0.1800
     13 C13       -11.0184   -0.0603   59.7994 C.2     1  ZINC000062882109    0.5200
     14 O14       -11.8168    0.6898   59.2789 O.2     1  ZINC000062882109   -0.4900
     15 N15        -9.8687   -0.3659   59.1658 N.am    1  ZINC000062882109   -0.6600
     16 C16        -9.5959    0.1831   57.9060 C.ar    1  ZINC000062882109    0.1400
     17 C17        -8.7568    1.2834   57.7942 C.ar    1  ZINC000062882109   -0.1000
     18 C18        -8.4866    1.8287   56.5536 C.ar    1  ZINC000062882109   -0.1100
     19 C19        -9.0529    1.2794   55.4131 C.ar    1  ZINC000062882109    0.0800
     20 O20        -8.7862    1.8305   54.1988 O.3     1  ZINC000062882109   -0.3100
     21 C21        -9.0016    1.0229   53.0392 C.3     1  ZINC000062882109    0.0500
     22 C22       -10.4012    0.3975   53.1246 C.3     1  ZINC000062882109    0.0400
     23 N23       -10.4625   -0.3879   54.3691 N.am    1  ZINC000062882109   -0.5500
     24 C24       -11.0452   -1.6028   54.3990 C.2     1  ZINC000062882109    0.5300
     25 O25       -11.0841   -2.2315   55.4355 O.2     1  ZINC000062882109   -0.5100
     26 C26       -11.6486   -2.1801   53.1445 C.3     1  ZINC000062882109   -0.0800
     27 C27       -12.3831   -3.4789   53.4827 C.3     1  ZINC000062882109   -0.1300
     28 C28       -12.6362   -1.1769   52.5452 C.3     1  ZINC000062882109   -0.1600
     29 C29       -10.5390   -2.4704   52.1318 C.3     1  ZINC000062882109   -0.1500
     30 C30        -9.8919    0.1733   55.5245 C.ar    1  ZINC000062882109    0.1000
     31 C31       -10.1600   -0.3762   56.7670 C.ar    1  ZINC000062882109   -0.1400
     32 C32       -12.8090   -2.3951   59.7348 C.ar    1  ZINC000062882109   -0.0900
     33 H33       -13.0321   -5.7437   56.5588 H       1  ZINC000062882109    0.0900
     34 H34       -14.2667   -5.8084   57.8393 H       1  ZINC000062882109    0.1000
     35 H35       -14.3863   -4.5885   56.5486 H       1  ZINC000062882109    0.1000
     36 H36       -15.5410   -3.9494   58.4442 H       1  ZINC000062882109    0.1400
     37 H37       -16.6594   -2.4114   60.0015 H       1  ZINC000062882109    0.1300
     38 H38       -15.3339   -0.8672   61.3807 H       1  ZINC000062882109    0.1300
     39 H39       -10.8577   -0.2262   63.2172 H       1  ZINC000062882109    0.0800
     40 H40        -9.5678    0.2179   62.0738 H       1  ZINC000062882109    0.0800
     41 H41       -11.0360    1.2174   62.1913 H       1  ZINC000062882109    0.0800
     42 H42        -9.2301   -0.9657   59.5821 H       1  ZINC000062882109    0.4100
     43 H43        -8.3139    1.7147   58.6797 H       1  ZINC000062882109    0.1400
     44 H44        -7.8335    2.6849   56.4720 H       1  ZINC000062882109    0.1400
     45 H45        -8.9320    1.6419   52.1448 H       1  ZINC000062882109    0.1300
     46 H46        -8.2507    0.2338   52.9989 H       1  ZINC000062882109    0.0700
     47 H47       -11.1567    1.1829   53.1452 H       1  ZINC000062882109    0.0900
     48 H48       -10.5679   -0.2546   52.2671 H       1  ZINC000062882109    0.1300
     49 H49       -13.1736   -3.2721   54.2041 H       1  ZINC000062882109    0.0600
     50 H50       -12.8195   -3.8964   52.5753 H       1  ZINC000062882109    0.0700
     51 H51       -11.6795   -4.1936   53.9096 H       1  ZINC000062882109    0.0700
     52 H52       -12.1131   -0.2516   52.3042 H       1  ZINC000062882109    0.0700
     53 H53       -13.0727   -1.5944   51.6379 H       1  ZINC000062882109    0.0800
     54 H54       -13.4267   -0.9700   53.2666 H       1  ZINC000062882109    0.0600
     55 H55        -9.9511   -3.3231   52.4715 H       1  ZINC000062882109    0.0700
     56 H56       -10.9824   -2.6979   51.1624 H       1  ZINC000062882109    0.0800
     57 H57        -9.8933   -1.5971   52.0401 H       1  ZINC000062882109    0.0700
     58 H58       -10.8099   -1.2348   56.8504 H       1  ZINC000062882109    0.1800
     59 H59       -11.7316   -2.3879   59.6605 H       1  ZINC000062882109    0.1400
@<TRIPOS>BOND
     1     1     2    1
     2     1    33    1
     3     1    34    1
     4     1    35    1
     5     2     3    2
     6     2     4    1
     7     4    32   ar
     8     4     5   ar
     9     5     6   ar
    10     5    36    1
    11     6     7   ar
    12     6    37    1
    13     7     8   ar
    14     7    38    1
    15     8     9    1
    16     8    32   ar
    17     9    10    1
    18    10    11    1
    19    10    12    1
    20    10    13    1
    21    12    39    1
    22    12    40    1
    23    12    41    1
    24    13    14    2
    25    13    15   am
    26    15    16    1
    27    15    42    1
    28    16    31   ar
    29    16    17   ar
    30    17    18   ar
    31    17    43    1
    32    18    19   ar
    33    18    44    1
    34    19    30   ar
    35    19    20    1
    36    20    21    1
    37    21    22    1
    38    21    45    1
    39    21    46    1
    40    22    23    1
    41    22    47    1
    42    22    48    1
    43    23    24   am
    44    23    30    1
    45    24    25    2
    46    24    26    1
    47    26    27    1
    48    26    28    1
    49    26    29    1
    50    27    49    1
    51    27    50    1
    52    27    51    1
    53    28    52    1
    54    28    53    1
    55    28    54    1
    56    29    55    1
    57    29    56    1
    58    29    57    1
    59    30    31   ar
    60    31    58    1
    61    32    59    1
@<TRIPOS>SUBSTRUCTURE
     1 ZINC000062882109        1 TEMP              0 ****  ****    0 ROOT


##########                                Name:    ZINC000787750060
##########                DOCK_Rotatable_Bonds:                   6
##########                         Heavy_Atoms:                  24
##########                    Molecular_Weight:             347.438
##########                DOCK_Rotatable_Bonds:                   6
##########                       Formal_Charge:           0.0200003
##########                     HBond_Acceptors:                   7
##########                        HBond_Donors:                   2
##########                         Heavy_Atoms:                  24
##########                          Grid_Score:          -34.069973
##########                     Grid_vdw_energy:          -33.015152
##########                      Grid_es_energy:           -1.054819
##########           Internal_energy_repulsive:            7.292193

@<TRIPOS>MOLECULE
ZINC000787750060
 45 47 1 0 0
SMALL
USER_CHARGES


@<TRIPOS>ATOM
      1 C1        -12.9701    1.4795   65.2055 C.3     1  ZINC000787750060   -0.1200
      2 C2        -12.1853    0.8718   64.0715 C.ar    1  ZINC000787750060   -0.0400
      3 C3        -10.8188    1.0826   63.9894 C.ar    1  ZINC000787750060   -0.1300
      4 C4        -10.0911    0.5318   62.9566 C.ar    1  ZINC000787750060   -0.0700
      5 C5        -10.7332   -0.2431   61.9881 C.ar    1  ZINC000787750060   -0.1700
      6 C6         -9.9603   -0.8362   60.8801 C.2     1  ZINC000787750060    0.5600
      7 O7         -9.7435   -0.1878   59.8746 O.2     1  ZINC000787750060   -0.5200
      8 N8         -9.4945   -2.0968   60.9826 N.am    1  ZINC000787750060   -0.7300
      9 C9         -8.7285   -2.6863   59.8817 C.3     1  ZINC000787750060    0.2100
     10 C10        -9.6734   -3.3355   58.9035 C.2     1  ZINC000787750060   -0.2800
     11 C11       -10.0145   -4.6242   58.8824 C.2     1  ZINC000787750060    0.0900
     12 N12       -10.8628   -4.9526   57.9242 N.2     1  ZINC000787750060   -0.5200
     13 C13       -11.2533   -4.0001   57.1354 C.2     1  ZINC000787750060    0.2300
     14 N14       -12.1373   -4.1560   56.0793 N.3     1  ZINC000787750060   -0.4500
     15 C15       -12.8088   -2.8872   55.7625 C.3     1  ZINC000787750060    0.0200
     16 C16       -13.7286   -3.0902   54.5557 C.3     1  ZINC000787750060    0.0600
     17 O17       -14.6587   -4.1381   54.8424 O.3     1  ZINC000787750060   -0.3800
     18 C18       -14.0388   -5.3885   55.1545 C.3     1  ZINC000787750060    0.0600
     19 C19       -13.1221   -5.2088   56.3675 C.3     1  ZINC000787750060    0.0300
     20 S20       -10.5255   -2.5224   57.5935 S.3     1  ZINC000787750060    0.1700
     21 C21       -12.1163   -0.4544   62.0750 C.ar    1  ZINC000787750060    0.1700
     22 O22       -12.7509   -1.2052   61.1402 O.3     1  ZINC000787750060   -0.4700
     23 C23       -12.8319    0.1035   63.1235 C.ar    1  ZINC000787750060   -0.1200
     24 C24       -14.3189   -0.1200   63.2227 C.3     1  ZINC000787750060   -0.1200
     25 H25       -12.9912    0.7854   66.0457 H       1  ZINC000787750060    0.0800
     26 H26       -12.4976    2.4114   65.5161 H       1  ZINC000787750060    0.0700
     27 H27       -13.9890    1.6812   64.8751 H       1  ZINC000787750060    0.0800
     28 H28       -10.3213    1.6817   64.7377 H       1  ZINC000787750060    0.1300
     29 H29        -9.0259    0.6994   62.8961 H       1  ZINC000787750060    0.1300
     30 H30        -9.6664   -2.6136   61.7852 H       1  ZINC000787750060    0.4000
     31 H31        -8.1609   -1.9057   59.3751 H       1  ZINC000787750060    0.0900
     32 H32        -8.0429   -3.4359   60.2766 H       1  ZINC000787750060    0.0800
     33 H33        -9.6286   -5.3419   59.5914 H       1  ZINC000787750060    0.1800
     34 H34       -13.3992   -2.5640   56.6199 H       1  ZINC000787750060    0.0600
     35 H35       -12.0620   -2.1289   55.5275 H       1  ZINC000787750060    0.1000
     36 H36       -14.2716   -2.1671   54.3525 H       1  ZINC000787750060    0.1100
     37 H37       -13.1319   -3.3613   53.6847 H       1  ZINC000787750060    0.0700
     38 H38       -14.8061   -6.1278   55.3846 H       1  ZINC000787750060    0.1100
     39 H39       -13.4510   -5.7266   54.3011 H       1  ZINC000787750060    0.0600
     40 H40       -12.6039   -6.1453   56.5740 H       1  ZINC000787750060    0.1000
     41 H41       -13.7175   -4.9228   57.2345 H       1  ZINC000787750060    0.0700
     42 H42       -12.2429   -1.3332   60.3273 H       1  ZINC000787750060    0.4000
     43 H43       -14.5130   -1.0187   63.8083 H       1  ZINC000787750060    0.0700
     44 H44       -14.7836    0.7378   63.7088 H       1  ZINC000787750060    0.0700
     45 H45       -14.7356   -0.2408   62.2228 H       1  ZINC000787750060    0.0800
@<TRIPOS>BOND
     1     1     2    1
     2     1    25    1
     3     1    26    1
     4     1    27    1
     5     2    23   ar
     6     2     3   ar
     7     3     4   ar
     8     3    28    1
     9     4     5   ar
    10     4    29    1
    11     5     6    1
    12     5    21   ar
    13     6     7    2
    14     6     8   am
    15     8     9    1
    16     8    30    1
    17     9    10    1
    18     9    31    1
    19     9    32    1
    20    10    20    1
    21    10    11    2
    22    11    12    1
    23    11    33    1
    24    12    13    2
    25    13    14    1
    26    13    20    1
    27    14    19    1
    28    14    15    1
    29    15    16    1
    30    15    34    1
    31    15    35    1
    32    16    17    1
    33    16    36    1
    34    16    37    1
    35    17    18    1
    36    18    19    1
    37    18    38    1
    38    18    39    1
    39    19    40    1
    40    19    41    1
    41    21    22    1
    42    21    23   ar
    43    22    42    1
    44    23    24    1
    45    24    43    1
    46    24    44    1
    47    24    45    1
@<TRIPOS>SUBSTRUCTURE
     1 ZINC000787750060        1 TEMP              0 ****  ****    0 ROOT


##########                                Name:    ZINC000676204775
##########                DOCK_Rotatable_Bonds:                   4
##########                         Heavy_Atoms:                  25
##########                    Molecular_Weight:             359.452
##########                DOCK_Rotatable_Bonds:                   4
##########                       Formal_Charge:          0.00999978
##########                     HBond_Acceptors:                   8
##########                        HBond_Donors:                   2
##########                         Heavy_Atoms:                  25
##########                          Grid_Score:          -34.020645
##########                     Grid_vdw_energy:          -33.664738
##########                      Grid_es_energy:           -0.355907
##########           Internal_energy_repulsive:           11.866057

@<TRIPOS>MOLECULE
ZINC000676204775
 46 49 1 0 0
SMALL
USER_CHARGES


@<TRIPOS>ATOM
      1 C1        -10.7146   -1.1002   60.6418 C.3     1  ZINC000676204775   -0.1600
      2 C2         -9.5728   -1.9211   60.0389 C.3     1  ZINC000676204775    0.1600
      3 C3         -9.0505   -2.9110   61.0820 C.3     1  ZINC000676204775   -0.1600
      4 N4        -10.0637   -2.6561   58.8707 N.pl3   1  ZINC000676204775   -0.3900
      5 N5        -10.2135   -4.0444   58.7896 N.2     1  ZINC000676204775   -0.2500
      6 C6        -10.6718   -4.3773   57.6168 C.2     1  ZINC000676204775    0.0900
      7 C7        -10.8489   -3.1526   56.8433 C.ar    1  ZINC000676204775   -0.2100
      8 C8        -11.2991   -2.8772   55.5476 C.ar    1  ZINC000676204775    0.0800
      9 C9        -11.3471   -1.5851   55.1101 C.ar    1  ZINC000676204775   -0.7200
     10 S10       -11.9143   -1.2367   53.4787 S.o2    1  ZINC000676204775    2.6900
     11 O11       -12.5089   -2.4337   52.9963 O.2     1  ZINC000676204775   -0.9300
     12 O12       -12.6079    0.0014   53.5509 O.2     1  ZINC000676204775   -0.9600
     13 N13       -10.5757   -0.9687   52.5412 N.am    1  ZINC000676204775   -1.1100
     14 C14        -9.6546    0.1208   52.8740 C.3     1  ZINC000676204775    0.2400
     15 H15        -9.4103    0.0844   53.9356 H       1  ZINC000676204775    0.1000
     16 C16       -10.3048    1.4688   52.5385 C.3     1  ZINC000676204775   -0.1200
     17 C17        -9.2668    2.5869   52.6562 C.3     1  ZINC000676204775   -0.1200
     18 C18        -8.2703    2.4927   51.4939 C.3     1  ZINC000676204775   -0.0400
     19 C19        -7.7632    1.0734   51.4222 C.2     1  ZINC000676204775   -0.2300
     20 C20        -6.6777    0.6066   50.7782 C.2     1  ZINC000676204775    0.0600
     21 N21        -6.6156   -0.7265   50.9941 N.pl3   1  ZINC000676204775   -0.4800
     22 N22        -7.7061   -1.0863   51.8006 N.2     1  ZINC000676204775   -0.2400
     23 C23        -8.3926   -0.0116   52.0562 C.2     1  ZINC000676204775    0.0500
     24 C24       -10.9532   -0.5421   55.9390 C.ar    1  ZINC000676204775    0.0100
     25 C25       -10.5100   -0.7858   57.2082 C.ar    1  ZINC000676204775   -0.1500
     26 C26       -10.4553   -2.0933   57.6840 C.ar    1  ZINC000676204775    0.1700
     27 H27       -11.0867   -0.3948   59.8987 H       1  ZINC000676204775    0.0600
     28 H28       -11.5211   -1.7677   60.9451 H       1  ZINC000676204775    0.0700
     29 H29       -10.3494   -0.5533   61.5110 H       1  ZINC000676204775    0.0800
     30 H30        -8.7662   -1.2535   59.7356 H       1  ZINC000676204775    0.1000
     31 H31        -9.8571   -3.5786   61.3852 H       1  ZINC000676204775    0.0700
     32 H32        -8.2371   -3.4958   60.6525 H       1  ZINC000676204775    0.0600
     33 H33        -8.6853   -2.3641   61.9512 H       1  ZINC000676204775    0.0800
     34 H34       -10.8829   -5.3806   57.2773 H       1  ZINC000676204775    0.2000
     35 H35       -11.6067   -3.6825   54.8970 H       1  ZINC000676204775    0.1500
     36 H36       -10.4015   -1.5332   51.7717 H       1  ZINC000676204775    0.4200
     37 H37       -10.6933    1.4404   51.5205 H       1  ZINC000676204775    0.0800
     38 H38       -11.1232    1.6592   53.2327 H       1  ZINC000676204775    0.0800
     39 H39        -9.7699    3.5534   52.6249 H       1  ZINC000676204775    0.0700
     40 H40        -8.7324    2.4876   53.6010 H       1  ZINC000676204775    0.0700
     41 H41        -8.7688    2.7527   50.5602 H       1  ZINC000676204775    0.0700
     42 H42        -7.4366    3.1727   51.6683 H       1  ZINC000676204775    0.0700
     43 H43        -5.9821    1.1912   50.1945 H       1  ZINC000676204775    0.1800
     44 H44        -5.9365   -1.3286   50.6518 H       1  ZINC000676204775    0.4400
     45 H45       -10.9976    0.4740   55.5754 H       1  ZINC000676204775    0.1500
     46 H46       -10.2068    0.0342   57.8423 H       1  ZINC000676204775    0.1300
@<TRIPOS>BOND
     1     1     2    1
     2     1    27    1
     3     1    28    1
     4     1    29    1
     5     2     3    1
     6     2     4    1
     7     2    30    1
     8     3    31    1
     9     3    32    1
    10     3    33    1
    11     4    26    1
    12     4     5    1
    13     5     6    2
    14     6     7    1
    15     6    34    1
    16     7    26   ar
    17     7     8   ar
    18     8     9   ar
    19     8    35    1
    20     9    10    1
    21     9    24   ar
    22    10    11    2
    23    10    12    2
    24    10    13   am
    25    13    14    1
    26    13    36    1
    27    14    15    1
    28    14    23    1
    29    14    16    1
    30    16    17    1
    31    16    37    1
    32    16    38    1
    33    17    18    1
    34    17    39    1
    35    17    40    1
    36    18    19    1
    37    18    41    1
    38    18    42    1
    39    19    23    1
    40    19    20    2
    41    20    21    1
    42    20    43    1
    43    21    22    1
    44    21    44    1
    45    22    23    2
    46    24    25   ar
    47    24    45    1
    48    25    26   ar
    49    25    46    1
@<TRIPOS>SUBSTRUCTURE
     1 ZINC000676204775        1 TEMP              0 ****  ****    0 ROOT


##########                                Name:    ZINC000012979878
##########                DOCK_Rotatable_Bonds:                   7
##########                         Heavy_Atoms:                  26
##########                    Molecular_Weight:             388.874
##########                DOCK_Rotatable_Bonds:                   7
##########                       Formal_Charge:          -0.0100003
##########                     HBond_Acceptors:                   7
##########                        HBond_Donors:                   1
##########                         Heavy_Atoms:                  26
##########                          Grid_Score:          -34.005955
##########                     Grid_vdw_energy:          -33.305641
##########                      Grid_es_energy:           -0.700315
##########           Internal_energy_repulsive:           10.231158

@<TRIPOS>MOLECULE
ZINC000012979878
 43 45 1 0 0
SMALL
USER_CHARGES


@<TRIPOS>ATOM
      1 C1        -14.0754    0.3181   48.7384 C.3     1  <0>         0.0300
      2 O2        -13.4140    0.1274   49.9907 O.3     1  <0>        -0.3100
      3 C3        -13.9726   -0.7606   50.8545 C.ar    1  <0>         0.1500
      4 C4        -15.1344   -1.4336   50.5036 C.ar    1  <0>        -0.2200
      5 C5        -15.7040   -2.3368   51.3812 C.ar    1  <0>        -0.0600
      6 C6        -15.1189   -2.5728   52.6098 C.ar    1  <0>        -0.1800
      7 C7        -13.9556   -1.9018   52.9666 C.ar    1  <0>         0.1800
      8 N8        -13.3632   -2.1407   54.2105 N.am    1  <0>        -0.6700
      9 C9        -12.8638   -3.3596   54.4962 C.2     1  <0>         0.6000
     10 O10       -12.9286   -4.2522   53.6715 O.2     1  <0>        -0.4900
     11 C11       -12.2425   -3.6102   55.8007 C.2     1  <0>        -0.3000
     12 C12       -12.5090   -4.6532   56.6265 C.2     1  <0>         0.1600
     13 C13       -13.5145   -5.7251   56.2934 C.3     1  <0>        -0.0900
     14 N14       -11.8161   -4.6483   57.7376 N.2     1  <0>        -0.4500
     15 C15       -10.9808   -3.6754   57.9136 C.2     1  <0>         0.0600
     16 C16       -10.1019   -3.5051   59.1259 C.3     1  <0>         0.1300
     17 O17        -9.3258   -2.3132   58.9878 O.3     1  <0>        -0.3000
     18 C18        -9.3825   -1.4182   60.0092 C.ar    1  <0>         0.1300
     19 C19        -8.8968   -1.7625   61.2621 C.ar    1  <0>        -0.2000
     20 C20        -8.9554   -0.8516   62.2990 C.ar    1  <0>        -0.0700
     21 C21        -9.4984    0.4036   62.0885 C.ar    1  <0>        -0.0700
     22 Cl22       -9.5713    1.5465   63.3931 Cl      1  <0>        -0.0700
     23 C23        -9.9828    0.7490   60.8393 C.ar    1  <0>        -0.0700
     24 C24        -9.9209   -0.1571   59.7985 C.ar    1  <0>        -0.1300
     25 S25       -11.0106   -2.6149   56.5731 S.3     1  <0>         0.2000
     26 C26       -13.3792   -0.9989   52.0844 C.ar    1  <0>        -0.1500
     27 H27       -14.1145   -0.6290   48.2002 H       1  <0>         0.0600
     28 H28       -15.0890    0.6784   48.9139 H       1  <0>         0.0600
     29 H29       -13.5271    1.0504   48.1457 H       1  <0>         0.1000
     30 H30       -15.5942   -1.2511   49.5435 H       1  <0>         0.1300
     31 H31       -16.6086   -2.8586   51.1058 H       1  <0>         0.1300
     32 H32       -15.5660   -3.2790   53.2938 H       1  <0>         0.1300
     33 H33       -13.3116   -1.4293   54.8679 H       1  <0>         0.4100
     34 H34       -13.0190   -6.5339   55.7562 H       1  <0>         0.0900
     35 H35       -13.9498   -6.1138   57.2142 H       1  <0>         0.0800
     36 H36       -14.3020   -5.3032   55.6691 H       1  <0>         0.1000
     37 H37       -10.7237   -3.4324   60.0181 H       1  <0>         0.0900
     38 H38        -9.4364   -4.3637   59.2156 H       1  <0>         0.1000
     39 H39        -8.4737   -2.7424   61.4270 H       1  <0>         0.1400
     40 H40        -8.5774   -1.1193   63.2746 H       1  <0>         0.1400
     41 H41       -10.4060    1.7294   60.6769 H       1  <0>         0.1400
     42 H42       -10.2992    0.1129   58.8236 H       1  <0>         0.1400
     43 H43       -12.4748   -0.4764   52.3590 H       1  <0>         0.1400
@<TRIPOS>BOND
     1     1     2    1
     2     1    27    1
     3     1    28    1
     4     1    29    1
     5     2     3    1
     6     3    26   ar
     7     3     4   ar
     8     4     5   ar
     9     4    30    1
    10     5     6   ar
    11     5    31    1
    12     6     7   ar
    13     6    32    1
    14     7     8    1
    15     7    26   ar
    16     8     9   am
    17     8    33    1
    18     9    10    2
    19     9    11    1
    20    11    25    1
    21    11    12    2
    22    12    13    1
    23    12    14    1
    24    13    34    1
    25    13    35    1
    26    13    36    1
    27    14    15    2
    28    15    16    1
    29    15    25    1
    30    16    17    1
    31    16    37    1
    32    16    38    1
    33    17    18    1
    34    18    24   ar
    35    18    19   ar
    36    19    20   ar
    37    19    39    1
    38    20    21   ar
    39    20    40    1
    40    21    22    1
    41    21    23   ar
    42    23    24   ar
    43    23    41    1
    44    24    42    1
    45    26    43    1
@<TRIPOS>SUBSTRUCTURE
     1 <0>         1 TEMP              0 ****  ****    0 ROOT


##########                                Name:    ZINC000464139057
##########                DOCK_Rotatable_Bonds:                   9
##########                         Heavy_Atoms:                  30
##########                    Molecular_Weight:              413.56
##########                DOCK_Rotatable_Bonds:                   9
##########                       Formal_Charge:         2.38419e-07
##########                     HBond_Acceptors:                   6
##########                        HBond_Donors:                   2
##########                         Heavy_Atoms:                  30
##########                          Grid_Score:          -33.977283
##########                     Grid_vdw_energy:          -33.835278
##########                      Grid_es_energy:           -0.142006
##########           Internal_energy_repulsive:           12.271884

@<TRIPOS>MOLECULE
ZINC000464139057
 65 67 1 0 0
SMALL
USER_CHARGES


@<TRIPOS>ATOM
      1 C1        -13.9324   -2.1873   54.1034 C.3     1  ZINC000464139057   -0.1800
      2 C2        -14.3783   -3.6235   54.3851 C.3     1  ZINC000464139057    0.0700
      3 H3        -14.8868   -4.0254   53.5088 H       1  ZINC000464139057    0.1200
      4 C4        -13.1527   -4.4864   54.7066 C.3     1  ZINC000464139057    0.0800
      5 N5        -12.5942   -4.0388   55.9923 N.am    1  ZINC000464139057   -0.6100
      6 C6        -11.2826   -3.7554   56.1180 C.2     1  ZINC000464139057    0.5600
      7 O7        -10.5420   -3.8682   55.1609 O.2     1  ZINC000464139057   -0.5300
      8 C8        -10.7446   -3.3073   57.4202 C.ar    1  ZINC000464139057   -0.1200
      9 C9        -10.2923   -4.2435   58.3514 C.ar    1  ZINC000464139057   -0.0900
     10 C10        -9.7911   -3.8187   59.5644 C.ar    1  ZINC000464139057   -0.1000
     11 C11        -9.7366   -2.4680   59.8590 C.ar    1  ZINC000464139057   -0.0900
     12 C12        -9.1882   -2.0113   61.1863 C.3     1  ZINC000464139057    0.1800
     13 N13       -10.0624   -0.9777   61.7463 N.am    1  ZINC000464139057   -0.7400
     14 C14        -9.6462   -0.2378   62.7932 C.2     1  ZINC000464139057    0.7000
     15 O15        -8.5447   -0.4271   63.2718 O.2     1  ZINC000464139057   -0.5900
     16 N16       -10.4511    0.7120   63.3094 N.am    1  ZINC000464139057   -0.7500
     17 C17        -9.9995    1.5150   64.4484 C.3     1  ZINC000464139057    0.1400
     18 C18       -10.6558    2.8960   64.3909 C.3     1  ZINC000464139057   -0.0900
     19 C19       -12.1546    2.7399   64.3793 C.2     1  ZINC000464139057   -0.1200
     20 C20       -12.7818    2.6272   63.2517 C.2     1  ZINC000464139057   -0.1500
     21 C21       -14.2871    2.4698   63.2258 C.3     1  ZINC000464139057   -0.0900
     22 C22       -14.6403    1.0670   63.7249 C.3     1  ZINC000464139057   -0.1100
     23 C23       -14.7360    1.0433   65.2401 C.3     1  ZINC000464139057   -0.1200
     24 C24       -13.4095    1.2873   65.9377 C.3     1  ZINC000464139057   -0.1100
     25 C25       -12.9183    2.7093   65.6859 C.3     1  ZINC000464139057   -0.0800
     26 C26       -10.1828   -1.5347   58.9402 C.ar    1  ZINC000464139057   -0.1000
     27 C27       -10.6814   -1.9459   57.7214 C.ar    1  ZINC000464139057   -0.0700
     28 C28       -13.5102   -3.9094   57.1367 C.3     1  ZINC000464139057    0.0700
     29 C29       -14.7184   -3.0746   56.6968 C.3     1  ZINC000464139057    0.0700
     30 H30       -14.4020   -2.0495   56.5046 H       1  ZINC000464139057    0.0700
     31 C31       -15.7759   -3.0842   57.8025 C.3     1  ZINC000464139057   -0.1500
     32 O32       -15.2701   -3.6361   55.5024 O.3     1  ZINC000464139057   -0.3700
     33 H33       -13.4240   -1.7861   54.9802 H       1  ZINC000464139057    0.0600
     34 H34       -13.2511   -2.1786   53.2526 H       1  ZINC000464139057    0.0700
     35 H35       -14.8045   -1.5739   53.8767 H       1  ZINC000464139057    0.0700
     36 H36       -13.4493   -5.5328   54.7794 H       1  ZINC000464139057    0.0800
     37 H37       -12.4056   -4.3699   53.9214 H       1  ZINC000464139057    0.1000
     38 H38       -10.3351   -5.2982   58.1229 H       1  ZINC000464139057    0.1300
     39 H39        -9.4408   -4.5422   60.2858 H       1  ZINC000464139057    0.1300
     40 H40        -9.1419   -2.8581   61.8711 H       1  ZINC000464139057    0.0800
     41 H41        -8.1874   -1.6032   61.0450 H       1  ZINC000464139057    0.0800
     42 H42       -10.9407   -0.8258   61.3637 H       1  ZINC000464139057    0.4000
     43 H43       -11.3295    0.8638   62.9267 H       1  ZINC000464139057    0.4000
     44 H44       -10.2797    1.0181   65.3772 H       1  ZINC000464139057    0.0700
     45 H45        -8.9159    1.6258   64.4081 H       1  ZINC000464139057    0.0700
     46 H46       -10.3577    3.4764   65.2641 H       1  ZINC000464139057    0.0700
     47 H47       -10.3372    3.4122   63.4854 H       1  ZINC000464139057    0.0800
     48 H48       -12.2277    2.6459   62.3248 H       1  ZINC000464139057    0.1100
     49 H49       -14.7441    3.2155   63.8763 H       1  ZINC000464139057    0.0700
     50 H50       -14.6508    2.5979   62.2063 H       1  ZINC000464139057    0.0700
     51 H51       -15.5979    0.7656   63.3001 H       1  ZINC000464139057    0.0600
     52 H52       -13.8694    0.3669   63.4029 H       1  ZINC000464139057    0.0600
     53 H53       -15.4427    1.8103   65.5569 H       1  ZINC000464139057    0.0600
     54 H54       -15.1191    0.0710   65.5500 H       1  ZINC000464139057    0.0600
     55 H55       -13.5345    1.1349   67.0098 H       1  ZINC000464139057    0.0600
     56 H56       -12.6699    0.5816   65.5595 H       1  ZINC000464139057    0.0600
     57 H57       -12.2627    3.0195   66.4996 H       1  ZINC000464139057    0.0700
     58 H58       -13.7712    3.3852   65.6222 H       1  ZINC000464139057    0.0700
     59 H59       -10.1372   -0.4818   59.1762 H       1  ZINC000464139057    0.1300
     60 H60       -11.0292   -1.2164   57.0049 H       1  ZINC000464139057    0.1300
     61 H61       -13.8428   -4.8977   57.4542 H       1  ZINC000464139057    0.0800
     62 H62       -12.9999   -3.4109   57.9608 H       1  ZINC000464139057    0.1000
     63 H63       -15.3534   -2.6595   58.7131 H       1  ZINC000464139057    0.0800
     64 H64       -16.6346   -2.4905   57.4892 H       1  ZINC000464139057    0.0700
     65 H65       -16.0931   -4.1094   57.9931 H       1  ZINC000464139057    0.0700
@<TRIPOS>BOND
     1     1     2    1
     2     1    33    1
     3     1    34    1
     4     1    35    1
     5     2     3    1
     6     2    32    1
     7     2     4    1
     8     4     5    1
     9     4    36    1
    10     4    37    1
    11     5     6   am
    12     5    28    1
    13     6     7    2
    14     6     8    1
    15     8    27   ar
    16     8     9   ar
    17     9    10   ar
    18     9    38    1
    19    10    11   ar
    20    10    39    1
    21    11    12    1
    22    11    26   ar
    23    12    13    1
    24    12    40    1
    25    12    41    1
    26    13    14   am
    27    13    42    1
    28    14    15    2
    29    14    16   am
    30    16    17    1
    31    16    43    1
    32    17    18    1
    33    17    44    1
    34    17    45    1
    35    18    19    1
    36    18    46    1
    37    18    47    1
    38    19    25    1
    39    19    20    2
    40    20    21    1
    41    20    48    1
    42    21    22    1
    43    21    49    1
    44    21    50    1
    45    22    23    1
    46    22    51    1
    47    22    52    1
    48    23    24    1
    49    23    53    1
    50    23    54    1
    51    24    25    1
    52    24    55    1
    53    24    56    1
    54    25    57    1
    55    25    58    1
    56    26    27   ar
    57    26    59    1
    58    27    60    1
    59    28    29    1
    60    28    61    1
    61    28    62    1
    62    29    30    1
    63    29    31    1
    64    29    32    1
    65    31    63    1
    66    31    64    1
    67    31    65    1
@<TRIPOS>SUBSTRUCTURE
     1 ZINC000464139057        1 TEMP              0 ****  ****    0 ROOT


##########                                Name:    ZINC001045438664
##########                DOCK_Rotatable_Bonds:                   6
##########                         Heavy_Atoms:                  26
##########                    Molecular_Weight:             352.439
##########                DOCK_Rotatable_Bonds:                   6
##########                       Formal_Charge:          -0.0099999
##########                     HBond_Acceptors:                   7
##########                        HBond_Donors:                   2
##########                         Heavy_Atoms:                  26
##########                          Grid_Score:          -33.964592
##########                     Grid_vdw_energy:          -33.953224
##########                      Grid_es_energy:           -0.011369
##########           Internal_energy_repulsive:            5.594161

@<TRIPOS>MOLECULE
ZINC001045438664
 50 53 1 0 0
SMALL
USER_CHARGES


@<TRIPOS>ATOM
      1 C1         -9.4604   -1.8008   61.3408 C.3     1  ZINC001045438664   -0.1100
      2 C2         -9.6765   -1.3786   59.9103 C.ar    1  ZINC001045438664    0.2100
      3 C3        -10.0085   -2.3122   58.9488 C.ar    1  ZINC001045438664   -0.3000
      4 C4        -10.1991   -1.8735   57.6366 C.ar    1  ZINC001045438664    0.4500
      5 N5        -10.5339   -2.7711   56.6360 N.pl3   1  ZINC001045438664   -0.7100
      6 C6        -11.8329   -2.6705   55.9661 C.3     1  ZINC001045438664    0.1500
      7 H7        -12.2819   -1.7023   56.1878 H       1  ZINC001045438664    0.0900
      8 C8        -12.7526   -3.7859   56.4667 C.3     1  ZINC001045438664   -0.1300
      9 C9        -14.1093   -3.6808   55.7672 C.3     1  ZINC001045438664   -0.1200
     10 C10       -13.9158   -3.8191   54.2558 C.3     1  ZINC001045438664   -0.1200
     11 C11       -12.9960   -2.7036   53.7551 C.3     1  ZINC001045438664   -0.1300
     12 C12       -11.6393   -2.8088   54.4547 C.3     1  ZINC001045438664    0.1400
     13 H13       -11.1903   -3.7769   54.2330 H       1  ZINC001045438664    0.1000
     14 N14       -10.7587   -1.7408   53.9754 N.am    1  ZINC001045438664   -0.7200
     15 C15       -10.0095   -1.9298   52.8710 C.2     1  ZINC001045438664    0.5700
     16 O16       -10.0635   -2.9871   52.2737 O.2     1  ZINC001045438664   -0.5200
     17 C17        -9.1221   -0.8514   52.3863 C.ar    1  ZINC001045438664   -0.2500
     18 C18        -8.0806   -1.1239   51.4921 C.ar    1  ZINC001045438664    0.1900
     19 N19        -7.3118   -0.1296   51.0842 N.ar    1  ZINC001045438664   -0.5200
     20 C20        -7.5148    1.1028   51.5074 C.ar    1  ZINC001045438664    0.3200
     21 N21        -8.4837    1.4035   52.3499 N.ar    1  ZINC001045438664   -0.5200
     22 C22        -9.3033    0.4719   52.8042 C.ar    1  ZINC001045438664    0.2100
     23 N23       -10.0548   -0.5802   57.3634 N.ar    1  ZINC001045438664   -0.5800
     24 C24        -9.7369    0.2763   58.3130 C.ar    1  ZINC001045438664    0.4000
     25 C25        -9.5829    1.7341   57.9632 C.3     1  ZINC001045438664   -0.1100
     26 C26        -8.1641    2.2601   57.7368 C.3     1  ZINC001045438664   -0.1500
     27 C27        -9.1099    2.0749   56.5485 C.3     1  ZINC001045438664   -0.1500
     28 N28        -9.5553   -0.1054   59.5610 N.ar    1  ZINC001045438664   -0.5600
     29 H29       -10.4065   -1.7542   61.8802 H       1  ZINC001045438664    0.0800
     30 H30        -9.0785   -2.8214   61.3647 H       1  ZINC001045438664    0.0800
     31 H31        -8.7402   -1.1321   61.8122 H       1  ZINC001045438664    0.0800
     32 H32       -10.1177   -3.3557   59.2049 H       1  ZINC001045438664    0.1400
     33 H33        -9.9082   -3.4664   56.3790 H       1  ZINC001045438664    0.4100
     34 H34       -12.3037   -4.7541   56.2450 H       1  ZINC001045438664    0.0700
     35 H35       -12.8905   -3.6873   57.5435 H       1  ZINC001045438664    0.0700
     36 H36       -14.7646   -4.4754   56.1238 H       1  ZINC001045438664    0.0700
     37 H37       -14.5583   -2.7126   55.9888 H       1  ZINC001045438664    0.0700
     38 H38       -13.4667   -4.7873   54.0340 H       1  ZINC001045438664    0.0700
     39 H39       -14.8822   -3.7442   53.7573 H       1  ZINC001045438664    0.0700
     40 H40       -12.8581   -2.8023   52.6784 H       1  ZINC001045438664    0.0800
     41 H41       -13.4450   -1.7355   53.9768 H       1  ZINC001045438664    0.0700
     42 H42       -10.7146   -0.8976   54.4528 H       1  ZINC001045438664    0.4000
     43 H43        -7.9078   -2.1307   51.1413 H       1  ZINC001045438664    0.1700
     44 H44        -6.8667    1.8907   51.1531 H       1  ZINC001045438664    0.2100
     45 H45       -10.0946    0.7261   53.4940 H       1  ZINC001045438664    0.1800
     46 H46       -10.3014    2.4080   58.4296 H       1  ZINC001045438664    0.1300
     47 H47        -7.9491    3.2804   58.0545 H       1  ZINC001045438664    0.1000
     48 H48        -7.3421    1.5520   57.8409 H       1  ZINC001045438664    0.1100
     49 H49        -8.9102    1.2448   55.8709 H       1  ZINC001045438664    0.1000
     50 H50        -9.5172    2.9733   56.0845 H       1  ZINC001045438664    0.1000
@<TRIPOS>BOND
     1     1     2    1
     2     1    29    1
     3     1    30    1
     4     1    31    1
     5     2    28   ar
     6     2     3   ar
     7     3     4   ar
     8     3    32    1
     9     4     5    1
    10     4    23   ar
    11     5     6    1
    12     5    33    1
    13     6     7    1
    14     6    12    1
    15     6     8    1
    16     8     9    1
    17     8    34    1
    18     8    35    1
    19     9    10    1
    20     9    36    1
    21     9    37    1
    22    10    11    1
    23    10    38    1
    24    10    39    1
    25    11    12    1
    26    11    40    1
    27    11    41    1
    28    12    13    1
    29    12    14    1
    30    14    15   am
    31    14    42    1
    32    15    16    2
    33    15    17    1
    34    17    22   ar
    35    17    18   ar
    36    18    19   ar
    37    18    43    1
    38    19    20   ar
    39    20    21   ar
    40    20    44    1
    41    21    22   ar
    42    22    45    1
    43    23    24   ar
    44    24    25    1
    45    24    28   ar
    46    25    27    1
    47    25    26    1
    48    25    46    1
    49    26    27    1
    50    26    47    1
    51    26    48    1
    52    27    49    1
    53    27    50    1
@<TRIPOS>SUBSTRUCTURE
     1 ZINC001045438664        1 TEMP              0 ****  ****    0 ROOT


##########                                Name:    ZINC000981048968
##########                DOCK_Rotatable_Bonds:                   7
##########                         Heavy_Atoms:                  25
##########                    Molecular_Weight:             344.414
##########                DOCK_Rotatable_Bonds:                   7
##########                       Formal_Charge:                0.02
##########                     HBond_Acceptors:                   7
##########                        HBond_Donors:                   2
##########                         Heavy_Atoms:                  25
##########                          Grid_Score:          -33.963718
##########                     Grid_vdw_energy:          -32.482162
##########                      Grid_es_energy:           -1.481556
##########           Internal_energy_repulsive:            4.818768

@<TRIPOS>MOLECULE
ZINC000981048968
 49 52 1 0 0
SMALL
USER_CHARGES


@<TRIPOS>ATOM
      1 C1        -10.6473    1.3693   63.8471 C.3     1  ZINC000981048968   -0.0800
      2 C2        -10.1099    0.4965   62.7423 C.2     1  ZINC000981048968   -0.0100
      3 C3        -10.1571    0.7827   61.4323 C.2     1  ZINC000981048968   -0.1600
      4 C4         -9.5166   -0.3500   60.7480 C.2     1  ZINC000981048968   -0.2300
      5 C5         -9.3168   -0.5171   59.2974 C.2     1  ZINC000981048968    0.5900
      6 O6         -8.9774   -1.5960   58.8505 O.2     1  ZINC000981048968   -0.5300
      7 N7         -9.5103    0.5260   58.4660 N.am    1  ZINC000981048968   -0.7300
      8 C8         -9.3100    0.3604   57.0242 C.3     1  ZINC000981048968    0.1500
      9 H9         -8.6868   -0.5151   56.8421 H       1  ZINC000981048968    0.0900
     10 C10        -8.6204    1.6039   56.4591 C.3     1  ZINC000981048968   -0.1300
     11 C11        -8.4112    1.4310   54.9533 C.3     1  ZINC000981048968   -0.1200
     12 C12        -9.7665    1.2438   54.2683 C.3     1  ZINC000981048968   -0.1100
     13 C13       -10.4561    0.0004   54.8334 C.3     1  ZINC000981048968    0.1000
     14 H14        -9.8329   -0.8751   54.6514 H       1  ZINC000981048968    0.0500
     15 N15       -11.7573   -0.1793   54.1758 N.3     1  ZINC000981048968   -0.6800
     16 C16       -11.6853   -1.2205   53.1420 C.3     1  ZINC000981048968    0.1500
     17 C17       -12.0217   -2.5572   53.7511 C.2     1  ZINC000981048968    0.1800
     18 N18       -12.0422   -3.7004   53.1337 N.2     1  ZINC000981048968   -0.3800
     19 O19       -12.3502   -4.5871   53.9020 O.3     1  ZINC000981048968    0.0800
     20 C20       -12.5618   -4.0783   55.1195 C.2     1  ZINC000981048968    0.2100
     21 C21       -12.9616   -4.8433   56.3548 C.3     1  ZINC000981048968   -0.0800
     22 C22       -14.2967   -4.4813   57.0086 C.3     1  ZINC000981048968   -0.1600
     23 C23       -14.1526   -5.7969   56.2407 C.3     1  ZINC000981048968   -0.1500
     24 N24       -12.3503   -2.7870   55.0350 N.2     1  ZINC000981048968   -0.4600
     25 C25       -10.6652    0.1733   56.3392 C.3     1  ZINC000981048968   -0.1300
     26 C26        -9.1449   -1.2137   61.7364 C.2     1  ZINC000981048968    0.0200
     27 O27        -9.5027   -0.6883   62.9121 O.3     1  ZINC000981048968   -0.1700
     28 H28       -10.4674    0.8895   64.8092 H       1  ZINC000981048968    0.0800
     29 H29       -10.1445    2.3361   63.8237 H       1  ZINC000981048968    0.0900
     30 H30       -11.7187    1.5134   63.7078 H       1  ZINC000981048968    0.0900
     31 H31       -10.5795    1.6647   60.9740 H       1  ZINC000981048968    0.1600
     32 H32        -9.7822    1.3863   58.8222 H       1  ZINC000981048968    0.4000
     33 H33        -9.2436    2.4794   56.6411 H       1  ZINC000981048968    0.0700
     34 H34        -7.6549    1.7372   56.9470 H       1  ZINC000981048968    0.0700
     35 H35        -7.9199    2.3168   54.5507 H       1  ZINC000981048968    0.0700
     36 H36        -7.7881    0.5554   54.7712 H       1  ZINC000981048968    0.0600
     37 H37       -10.3897    2.1193   54.4505 H       1  ZINC000981048968    0.0700
     38 H38        -9.6175    1.1206   53.1956 H       1  ZINC000981048968    0.0700
     39 H39       -12.4776   -0.3889   54.8506 H       1  ZINC000981048968    0.3500
     40 H40       -12.3967   -0.9936   52.3479 H       1  ZINC000981048968    0.1100
     41 H41       -10.6773   -1.2529   52.7286 H       1  ZINC000981048968    0.0600
     42 H42       -12.1426   -5.1371   57.0114 H       1  ZINC000981048968    0.1500
     43 H43       -14.3563   -4.5369   58.0955 H       1  ZINC000981048968    0.1200
     44 H44       -14.8858   -3.6900   56.5452 H       1  ZINC000981048968    0.1100
     45 H45       -14.6469   -5.8709   55.2721 H       1  ZINC000981048968    0.1000
     46 H46       -14.1174   -6.7179   56.8226 H       1  ZINC000981048968    0.1200
     47 H47       -11.1566   -0.7125   56.7418 H       1  ZINC000981048968    0.0700
     48 H48       -11.2884    1.0488   56.5214 H       1  ZINC000981048968    0.0800
     49 H49        -8.6435   -2.1595   61.5934 H       1  ZINC000981048968    0.2100
@<TRIPOS>BOND
     1     1     2    1
     2     1    28    1
     3     1    29    1
     4     1    30    1
     5     2    27    1
     6     2     3    2
     7     3     4    1
     8     3    31    1
     9     4     5    1
    10     4    26    2
    11     5     6    2
    12     5     7   am
    13     7     8    1
    14     7    32    1
    15     8     9    1
    16     8    25    1
    17     8    10    1
    18    10    11    1
    19    10    33    1
    20    10    34    1
    21    11    12    1
    22    11    35    1
    23    11    36    1
    24    12    13    1
    25    12    37    1
    26    12    38    1
    27    13    14    1
    28    13    15    1
    29    13    25    1
    30    15    16    1
    31    15    39    1
    32    16    17    1
    33    16    40    1
    34    16    41    1
    35    17    24    1
    36    17    18    2
    37    18    19    1
    38    19    20    1
    39    20    21    1
    40    20    24    2
    41    21    23    1
    42    21    22    1
    43    21    42    1
    44    22    23    1
    45    22    43    1
    46    22    44    1
    47    23    45    1
    48    23    46    1
    49    25    47    1
    50    25    48    1
    51    26    27    1
    52    26    49    1
@<TRIPOS>SUBSTRUCTURE
     1 ZINC000981048968        1 TEMP              0 ****  ****    0 ROOT


##########                                Name:    ZINC000489403631
##########                DOCK_Rotatable_Bonds:                   7
##########                         Heavy_Atoms:                  28
##########                    Molecular_Weight:             381.391
##########                DOCK_Rotatable_Bonds:                   7
##########                       Formal_Charge:          -0.0300003
##########                     HBond_Acceptors:                   9
##########                        HBond_Donors:                   1
##########                         Heavy_Atoms:                  28
##########                          Grid_Score:          -33.955105
##########                     Grid_vdw_energy:          -33.722942
##########                      Grid_es_energy:           -0.232161
##########           Internal_energy_repulsive:           12.211892

@<TRIPOS>MOLECULE
ZINC000489403631
 47 49 1 0 0
SMALL
USER_CHARGES


@<TRIPOS>ATOM
      1 C1        -10.7829    1.8401   59.6225 C.3     1  ZINC000489403631   -0.1100
      2 C2        -10.9917    0.4226   59.1557 C.ar    1  ZINC000489403631   -0.0800
      3 C3        -10.7334    0.0832   57.8427 C.ar    1  ZINC000489403631   -0.0900
      4 C4        -10.9259   -1.2232   57.4127 C.ar    1  ZINC000489403631    0.1200
      5 N5        -10.6636   -1.5683   56.0806 N.am    1  ZINC000489403631   -0.6600
      6 C6        -11.5044   -1.1734   55.1041 C.2     1  ZINC000489403631    0.5100
      7 O7        -12.4883   -0.5194   55.3786 O.2     1  ZINC000489403631   -0.4600
      8 C8        -11.2222   -1.5447   53.6710 C.3     1  ZINC000489403631    0.1700
      9 C9        -10.9833   -3.0527   53.5723 C.3     1  ZINC000489403631   -0.1700
     10 C10       -12.4191   -1.1598   52.7992 C.3     1  ZINC000489403631   -0.1700
     11 N11       -10.0304   -0.8301   53.2070 N.pl3   1  ZINC000489403631   -0.3400
     12 C12        -9.1895   -1.2371   52.2333 C.2     1  ZINC000489403631    0.1500
     13 C13        -8.2202   -0.3013   52.1075 C.2     1  ZINC000489403631   -0.1900
     14 N14        -7.0881   -0.3427   51.1549 N.pl3   1  ZINC000489403631    0.0700
     15 O15        -6.3096    0.5919   51.0930 O.2     1  ZINC000489403631   -0.1700
     16 O16        -6.9351   -1.3116   50.4327 O.2     1  ZINC000489403631   -0.1600
     17 C17        -8.4774    0.7123   53.0364 C.2     1  ZINC000489403631    0.1000
     18 N18        -9.5657    0.3993   53.6919 N.2     1  ZINC000489403631   -0.2200
     19 C19       -11.3781   -2.1872   58.3037 C.ar    1  ZINC000489403631   -0.1100
     20 C20       -11.6361   -1.8465   59.6169 C.ar    1  ZINC000489403631   -0.1700
     21 C21       -11.4381   -0.5426   60.0472 C.ar    1  ZINC000489403631    0.1000
     22 O22       -11.6923   -0.2078   61.3401 O.3     1  ZINC000489403631   -0.2500
     23 C23       -10.6592   -0.2335   62.2198 C.ar    1  ZINC000489403631    0.1400
     24 C24        -9.5545   -1.0532   62.0004 C.ar    1  ZINC000489403631   -0.2000
     25 C25        -8.5246   -1.0508   62.9184 C.ar    1  ZINC000489403631    0.1200
     26 N26        -8.5776   -0.2855   63.9922 N.ar    1  ZINC000489403631   -0.4900
     27 C27        -9.6066    0.5043   64.2349 C.ar    1  ZINC000489403631    0.1200
     28 C28       -10.6737    0.5633   63.3622 C.ar    1  ZINC000489403631   -0.1800
     29 H29        -9.7598    1.9580   59.9797 H       1  ZINC000489403631    0.0700
     30 H30       -10.9594    2.5254   58.7934 H       1  ZINC000489403631    0.0700
     31 H31       -11.4782    2.0624   60.4319 H       1  ZINC000489403631    0.0700
     32 H32       -10.3821    0.8336   57.1500 H       1  ZINC000489403631    0.1500
     33 H33        -9.8768   -2.0913   55.8610 H       1  ZINC000489403631    0.4100
     34 H34       -11.8701   -3.5844   53.9175 H       1  ZINC000489403631    0.1000
     35 H35       -10.7792   -3.3212   52.5358 H       1  ZINC000489403631    0.0900
     36 H36       -10.1306   -3.3269   54.1934 H       1  ZINC000489403631    0.0800
     37 H37       -12.5894   -0.0854   52.8695 H       1  ZINC000489403631    0.0800
     38 H38       -12.2150   -1.4282   51.7627 H       1  ZINC000489403631    0.0900
     39 H39       -13.3059   -1.6914   53.1444 H       1  ZINC000489403631    0.0900
     40 H40        -9.2747   -2.1469   51.6576 H       1  ZINC000489403631    0.2000
     41 H41        -7.8833    1.6020   53.1837 H       1  ZINC000489403631    0.2100
     42 H42       -11.5283   -3.2032   57.9697 H       1  ZINC000489403631    0.1300
     43 H43       -11.9877   -2.5963   60.3101 H       1  ZINC000489403631    0.1300
     44 H44        -9.5050   -1.6822   61.1239 H       1  ZINC000489403631    0.1400
     45 H45        -7.6644   -1.6834   62.7565 H       1  ZINC000489403631    0.1600
     46 H46        -9.6117    1.1151   65.1256 H       1  ZINC000489403631    0.1700
     47 H47       -11.5127    1.2120   63.5665 H       1  ZINC000489403631    0.1500
@<TRIPOS>BOND
     1     1     2    1
     2     1    29    1
     3     1    30    1
     4     1    31    1
     5     2    21   ar
     6     2     3   ar
     7     3     4   ar
     8     3    32    1
     9     4     5    1
    10     4    19   ar
    11     5     6   am
    12     5    33    1
    13     6     7    2
    14     6     8    1
    15     8     9    1
    16     8    10    1
    17     8    11    1
    18     9    34    1
    19     9    35    1
    20     9    36    1
    21    10    37    1
    22    10    38    1
    23    10    39    1
    24    11    18    1
    25    11    12    1
    26    12    13    2
    27    12    40    1
    28    13    14    1
    29    13    17    1
    30    14    15    2
    31    14    16    2
    32    17    18    2
    33    17    41    1
    34    19    20   ar
    35    19    42    1
    36    20    21   ar
    37    20    43    1
    38    21    22    1
    39    22    23    1
    40    23    28   ar
    41    23    24   ar
    42    24    25   ar
    43    24    44    1
    44    25    26   ar
    45    25    45    1
    46    26    27   ar
    47    27    28   ar
    48    27    46    1
    49    28    47    1
@<TRIPOS>SUBSTRUCTURE
     1 ZINC000489403631        1 TEMP              0 ****  ****    0 ROOT


##########                                Name:    ZINC000477589488
##########                DOCK_Rotatable_Bonds:                   6
##########                         Heavy_Atoms:                  32
##########                    Molecular_Weight:             423.517
##########                DOCK_Rotatable_Bonds:                   6
##########                       Formal_Charge:        -8.19564e-07
##########                     HBond_Acceptors:                   6
##########                        HBond_Donors:                   1
##########                         Heavy_Atoms:                  32
##########                          Grid_Score:          -33.930519
##########                     Grid_vdw_energy:          -32.152061
##########                      Grid_es_energy:           -1.778456
##########           Internal_energy_repulsive:           18.270847

@<TRIPOS>MOLECULE
ZINC000477589488
 57 61 1 0 0
SMALL
USER_CHARGES


@<TRIPOS>ATOM
      1 O1        -10.9932   -2.9960   54.4486 O.2     1  ZINC000477589488   -0.5800
      2 C2        -11.3949   -1.8486   54.4730 C.2     1  ZINC000477589488    0.7100
      3 N3        -11.5879   -1.2271   55.6532 N.am    1  ZINC000477589488   -0.7400
      4 C4        -11.3196   -1.9360   56.9069 C.3     1  ZINC000477589488    0.2500
      5 H5        -10.4638   -2.5979   56.7740 H       1  ZINC000477589488    0.1100
      6 C6        -12.5283   -2.7490   57.2929 C.ar    1  ZINC000477589488   -0.0900
      7 C7        -12.5167   -4.1223   57.1346 C.ar    1  ZINC000477589488   -0.1000
      8 C8        -13.6255   -4.8681   57.4887 C.ar    1  ZINC000477589488   -0.1200
      9 C9        -14.7455   -4.2408   58.0016 C.ar    1  ZINC000477589488   -0.1200
     10 C10       -14.7566   -2.8677   58.1608 C.ar    1  ZINC000477589488   -0.1200
     11 C11       -13.6462   -2.1223   57.8107 C.ar    1  ZINC000477589488   -0.1000
     12 C12       -11.0179   -0.9371   57.9942 C.ar    1  ZINC000477589488   -0.0700
     13 C13       -10.3085   -1.3335   59.1404 C.ar    1  ZINC000477589488   -0.0400
     14 C14        -9.8650   -2.6572   59.3028 C.ar    1  ZINC000477589488   -0.1100
     15 C15        -9.1803   -3.0048   60.4263 C.ar    1  ZINC000477589488   -0.1100
     16 C16        -8.9112   -2.0670   61.4218 C.ar    1  ZINC000477589488   -0.1100
     17 C17        -9.3253   -0.7765   61.2992 C.ar    1  ZINC000477589488   -0.1100
     18 C18       -10.0344   -0.3797   60.1525 C.ar    1  ZINC000477589488   -0.0500
     19 C19       -10.4776    0.9437   59.9901 C.ar    1  ZINC000477589488   -0.1000
     20 C20       -11.1614    1.2917   58.8656 C.ar    1  ZINC000477589488   -0.1100
     21 C21       -11.4265    0.3553   57.8685 C.ar    1  ZINC000477589488   -0.1100
     22 N22       -11.6417   -1.1965   53.3197 N.am    1  ZINC000477589488   -0.6300
     23 C23       -11.4435   -1.8579   52.0210 C.3     1  ZINC000477589488    0.1300
     24 C24       -12.7169   -1.6838   51.1866 C.3     1  ZINC000477589488    0.0500
     25 N25       -13.0579   -0.2569   51.1113 N.3     1  ZINC000477589488   -0.4700
     26 C26       -14.1119   -0.0422   50.2302 C.ar    1  ZINC000477589488    0.2500
     27 C27       -14.2033    1.1579   49.5262 C.ar    1  ZINC000477589488   -0.1300
     28 C28       -15.2730    1.3224   48.6604 C.ar    1  ZINC000477589488   -0.0900
     29 C29       -16.1864    0.2839   48.5472 C.ar    1  ZINC000477589488    0.0200
     30 N30       -16.0225   -0.8181   49.2518 N.ar    1  ZINC000477589488   -0.2200
     31 N31       -15.0315   -0.9796   50.0513 N.ar    1  ZINC000477589488   -0.2800
     32 C32       -13.3634    0.2889   52.4405 C.3     1  ZINC000477589488    0.0400
     33 C33       -12.1222    0.1936   53.3264 C.3     1  ZINC000477589488    0.1200
     34 H34       -11.9044   -0.3104   55.6726 H       1  ZINC000477589488    0.3900
     35 H35       -11.6418   -4.6123   56.7338 H       1  ZINC000477589488    0.1100
     36 H36       -13.6168   -5.9409   57.3643 H       1  ZINC000477589488    0.1200
     37 H37       -15.6119   -4.8235   58.2776 H       1  ZINC000477589488    0.1200
     38 H38       -15.6317   -2.3776   58.5612 H       1  ZINC000477589488    0.1200
     39 H39       -13.6549   -1.0495   57.9351 H       1  ZINC000477589488    0.1200
     40 H40       -10.0668   -3.3948   58.5401 H       1  ZINC000477589488    0.1300
     41 H41        -8.8407   -4.0226   60.5486 H       1  ZINC000477589488    0.1300
     42 H42        -8.3661   -2.3693   62.3038 H       1  ZINC000477589488    0.1300
     43 H43        -9.1100   -0.0610   62.0791 H       1  ZINC000477589488    0.1300
     44 H44       -10.2771    1.6808   60.7535 H       1  ZINC000477589488    0.1300
     45 H45       -11.5012    2.3095   58.7435 H       1  ZINC000477589488    0.1300
     46 H46       -11.9707    0.6577   56.9860 H       1  ZINC000477589488    0.1200
     47 H47       -10.6005   -1.4011   51.5024 H       1  ZINC000477589488    0.0800
     48 H48       -11.2498   -2.9192   52.1765 H       1  ZINC000477589488    0.1100
     49 H49       -12.5491   -2.0712   50.1817 H       1  ZINC000477589488    0.1000
     50 H50       -13.5361   -2.2293   51.6551 H       1  ZINC000477589488    0.0600
     51 H51       -13.4639    1.9350   49.6521 H       1  ZINC000477589488    0.1500
     52 H52       -15.3923    2.2323   48.0909 H       1  ZINC000477589488    0.1500
     53 H53       -17.0319    0.3787   47.8821 H       1  ZINC000477589488    0.1700
     54 H54       -13.6644    1.3321   52.3449 H       1  ZINC000477589488    0.1000
     55 H55       -14.1736   -0.2840   52.8915 H       1  ZINC000477589488    0.0600
     56 H56       -12.3754    0.4903   54.3442 H       1  ZINC000477589488    0.0800
     57 H57       -11.3421    0.8464   52.9350 H       1  ZINC000477589488    0.0900
@<TRIPOS>BOND
     1     1     2    2
     2     2     3   am
     3     2    22   am
     4     3     4    1
     5     3    34    1
     6     4     5    1
     7     4     6    1
     8     4    12    1
     9     6    11   ar
    10     6     7   ar
    11     7     8   ar
    12     7    35    1
    13     8     9   ar
    14     8    36    1
    15     9    10   ar
    16     9    37    1
    17    10    11   ar
    18    10    38    1
    19    11    39    1
    20    12    21   ar
    21    12    13   ar
    22    13    18   ar
    23    13    14   ar
    24    14    15   ar
    25    14    40    1
    26    15    16   ar
    27    15    41    1
    28    16    17   ar
    29    16    42    1
    30    17    18   ar
    31    17    43    1
    32    18    19   ar
    33    19    20   ar
    34    19    44    1
    35    20    21   ar
    36    20    45    1
    37    21    46    1
    38    22    33    1
    39    22    23    1
    40    23    24    1
    41    23    47    1
    42    23    48    1
    43    24    25    1
    44    24    49    1
    45    24    50    1
    46    25    26    1
    47    25    32    1
    48    26    31   ar
    49    26    27   ar
    50    27    28   ar
    51    27    51    1
    52    28    29   ar
    53    28    52    1
    54    29    30   ar
    55    29    53    1
    56    30    31   ar
    57    32    33    1
    58    32    54    1
    59    32    55    1
    60    33    56    1
    61    33    57    1
@<TRIPOS>SUBSTRUCTURE
     1 ZINC000477589488        1 TEMP              0 ****  ****    0 ROOT


##########                                Name:    ZINC000151991096
##########                DOCK_Rotatable_Bonds:                   8
##########                         Heavy_Atoms:                  27
##########                    Molecular_Weight:             364.444
##########                DOCK_Rotatable_Bonds:                   8
##########                       Formal_Charge:          -0.0200004
##########                     HBond_Acceptors:                   5
##########                        HBond_Donors:                   1
##########                         Heavy_Atoms:                  27
##########                          Grid_Score:          -33.920250
##########                     Grid_vdw_energy:          -33.304073
##########                      Grid_es_energy:           -0.616177
##########           Internal_energy_repulsive:           10.364174

@<TRIPOS>MOLECULE
ZINC000151991096
 51 53 1 0 0
SMALL
USER_CHARGES


@<TRIPOS>ATOM
      1 C1        -13.9365   -5.8534   56.2749 C.3     1  ZINC000151991096   -0.1500
      2 C2        -13.8973   -4.4354   56.8485 C.3     1  ZINC000151991096   -0.1300
      3 C3        -12.6464   -3.7148   56.3419 C.3     1  ZINC000151991096    0.1400
      4 H4        -11.8963   -4.4501   56.0505 H       1  ZINC000151991096    0.1000
      5 N5        -12.1084   -2.8639   57.4062 N.am    1  ZINC000151991096   -0.7200
      6 C6        -11.1803   -3.3504   58.2537 C.2     1  ZINC000151991096    0.5600
      7 O7        -10.7906   -4.4960   58.1359 O.2     1  ZINC000151991096   -0.5300
      8 C8        -10.6370   -2.4923   59.3248 C.ar    1  ZINC000151991096   -0.1700
      9 C9         -9.5562   -2.9316   60.0938 C.ar    1  ZINC000151991096   -0.0500
     10 C10        -9.0520   -2.1280   61.0919 C.ar    1  ZINC000151991096   -0.1600
     11 C11        -9.6167   -0.8814   61.3349 C.ar    1  ZINC000151991096    0.1600
     12 O12        -9.1167   -0.0921   62.3191 O.3     1  ZINC000151991096   -0.3000
     13 C13        -9.5061   -0.4007   63.6590 C.3     1  ZINC000151991096    0.0900
     14 C14        -9.5047    0.8594   64.4854 C.ar    1  ZINC000151991096   -0.0500
     15 C15        -8.3503    1.2692   65.1191 C.ar    1  ZINC000151991096   -0.1000
     16 C16        -8.3473    2.4261   65.8784 C.ar    1  ZINC000151991096   -0.0900
     17 C17        -9.5006    3.1792   66.0079 C.ar    1  ZINC000151991096   -0.1200
     18 C18       -10.6624    2.7808   65.3795 C.ar    1  ZINC000151991096   -0.0700
     19 C19       -10.6710    1.6180   64.6068 C.ar    1  ZINC000151991096   -0.0200
     20 C20       -11.8733    1.1986   63.9516 C.1     1  ZINC000151991096    0.2400
     21 N21       -12.8271    0.8659   63.4320 N.1     1  ZINC000151991096   -0.4000
     22 C22       -10.6920   -0.4408   60.5721 C.ar    1  ZINC000151991096   -0.2200
     23 C23       -11.1985   -1.2363   59.5687 C.ar    1  ZINC000151991096   -0.0100
     24 C24       -13.0101   -2.8507   55.1327 C.3     1  ZINC000151991096    0.0700
     25 H25       -14.0779   -2.6322   55.1423 H       1  ZINC000151991096    0.1000
     26 C26       -12.6387   -3.5906   53.8297 C.3     1  ZINC000151991096   -0.1500
     27 C27       -12.0880   -2.4405   52.9431 C.3     1  ZINC000151991096   -0.1600
     28 C28       -11.4118   -1.5441   54.0107 C.3     1  ZINC000151991096    0.0500
     29 O29       -12.2636   -1.6287   55.1667 O.3     1  ZINC000151991096   -0.3700
     30 H30       -13.0485   -6.3990   56.5939 H       1  ZINC000151991096    0.0500
     31 H31       -14.8277   -6.3667   56.6357 H       1  ZINC000151991096    0.0500
     32 H32       -13.9612   -5.8044   55.1862 H       1  ZINC000151991096    0.0600
     33 H33       -14.7853   -3.8898   56.5293 H       1  ZINC000151991096    0.0700
     34 H34       -13.8727   -4.4845   57.9371 H       1  ZINC000151991096    0.0700
     35 H35       -12.4202   -1.9501   57.5008 H       1  ZINC000151991096    0.4000
     36 H36        -9.1171   -3.9002   59.9059 H       1  ZINC000151991096    0.1300
     37 H37        -8.2169   -2.4669   61.6870 H       1  ZINC000151991096    0.1400
     38 H38       -10.5070   -0.8323   63.6562 H       1  ZINC000151991096    0.0800
     39 H39        -8.8032   -1.1161   64.0860 H       1  ZINC000151991096    0.0800
     40 H40        -7.4466    0.6857   65.0227 H       1  ZINC000151991096    0.1400
     41 H41        -7.4405    2.7424   66.3724 H       1  ZINC000151991096    0.1400
     42 H42        -9.4915    4.0806   66.6027 H       1  ZINC000151991096    0.1400
     43 H43       -11.5622    3.3694   65.4818 H       1  ZINC000151991096    0.1400
     44 H44       -11.1282    0.5283   60.7642 H       1  ZINC000151991096    0.1300
     45 H45       -12.0338   -0.8931   58.9763 H       1  ZINC000151991096    0.1400
     46 H46       -11.8692   -4.3401   54.0149 H       1  ZINC000151991096    0.0800
     47 H47       -13.5205   -4.0425   53.3753 H       1  ZINC000151991096    0.0900
     48 H48       -11.3586   -2.8134   52.2242 H       1  ZINC000151991096    0.0800
     49 H49       -12.8968   -1.9103   52.4402 H       1  ZINC000151991096    0.0800
     50 H50       -10.4161   -1.9206   54.2453 H       1  ZINC000151991096    0.0600
     51 H51       -11.3544   -0.5141   53.6588 H       1  ZINC000151991096    0.0900
@<TRIPOS>BOND
     1     1     2    1
     2     1    30    1
     3     1    31    1
     4     1    32    1
     5     2     3    1
     6     2    33    1
     7     2    34    1
     8     3     4    1
     9     3     5    1
    10     3    24    1
    11     5     6   am
    12     5    35    1
    13     6     7    2
    14     6     8    1
    15     8    23   ar
    16     8     9   ar
    17     9    10   ar
    18     9    36    1
    19    10    11   ar
    20    10    37    1
    21    11    12    1
    22    11    22   ar
    23    12    13    1
    24    13    14    1
    25    13    38    1
    26    13    39    1
    27    14    19   ar
    28    14    15   ar
    29    15    16   ar
    30    15    40    1
    31    16    17   ar
    32    16    41    1
    33    17    18   ar
    34    17    42    1
    35    18    19   ar
    36    18    43    1
    37    19    20    1
    38    20    21    3
    39    22    23   ar
    40    22    44    1
    41    23    45    1
    42    24    25    1
    43    24    29    1
    44    24    26    1
    45    26    27    1
    46    26    46    1
    47    26    47    1
    48    27    28    1
    49    27    48    1
    50    27    49    1
    51    28    29    1
    52    28    50    1
    53    28    51    1
@<TRIPOS>SUBSTRUCTURE
     1 ZINC000151991096        1 TEMP              0 ****  ****    0 ROOT


##########                                Name:    ZINC000753658424
##########                DOCK_Rotatable_Bonds:                   8
##########                         Heavy_Atoms:                  24
##########                    Molecular_Weight:             332.399
##########                DOCK_Rotatable_Bonds:                   8
##########                       Formal_Charge:        -9.16421e-07
##########                     HBond_Acceptors:                   6
##########                        HBond_Donors:                   3
##########                         Heavy_Atoms:                  24
##########                          Grid_Score:          -33.913628
##########                     Grid_vdw_energy:          -30.997026
##########                      Grid_es_energy:           -2.916601
##########           Internal_energy_repulsive:           18.411005

@<TRIPOS>MOLECULE
ZINC000753658424
 48 49 1 0 0
SMALL
USER_CHARGES


@<TRIPOS>ATOM
      1 C1        -14.9218   -3.0653   53.1981 C.3     1  ZINC000753658424   -0.2000
      2 C2        -13.9099   -2.1313   53.8101 C.2     1  ZINC000753658424    0.4400
      3 O3        -14.0733   -0.9310   53.7425 O.2     1  ZINC000753658424   -0.4500
      4 C4        -12.7277   -2.6730   54.4874 C.2     1  ZINC000753658424   -0.2500
      5 C5        -11.5321   -3.0422   53.8909 C.2     1  ZINC000753658424    0.1000
      6 C6        -11.2169   -2.9565   52.4197 C.3     1  ZINC000753658424   -0.1000
      7 N7        -10.7036   -3.4882   54.8465 N.pl3   1  ZINC000753658424   -0.5300
      8 C8        -11.3376   -3.4182   56.0683 C.2     1  ZINC000753658424   -0.0600
      9 C9        -10.7612   -3.8154   57.3593 C.2     1  ZINC000753658424    0.5900
     10 O10       -10.8733   -4.9628   57.7483 O.2     1  ZINC000753658424   -0.5200
     11 N11       -10.1081   -2.9090   58.1131 N.am    1  ZINC000753658424   -0.7300
     12 C12        -9.5345   -3.3049   59.4017 C.3     1  ZINC000753658424    0.0900
     13 C13        -9.3561   -2.0666   60.2825 C.3     1  ZINC000753658424    0.1900
     14 H14        -8.8978   -1.2683   59.6987 H       1  ZINC000753658424    0.1300
     15 O15        -8.5148   -2.3885   61.3919 O.3     1  ZINC000753658424   -0.5500
     16 C16       -10.7009   -1.6111   60.7874 C.2     1  ZINC000753658424   -0.0600
     17 C17       -11.0380   -0.3460   61.0960 C.2     1  ZINC000753658424   -0.1800
     18 C18       -12.3849   -0.3741   61.5250 C.2     1  ZINC000753658424   -0.2100
     19 C19       -12.7903   -1.6546   61.4528 C.2     1  ZINC000753658424    0.0000
     20 C20       -14.1613   -2.1667   61.8122 C.3     1  ZINC000753658424   -0.0800
     21 O21       -11.7680   -2.3985   60.9999 O.3     1  ZINC000753658424   -0.1700
     22 C22       -12.5880   -2.9124   55.8757 C.2     1  ZINC000753658424   -0.0100
     23 C23       -13.6281   -2.6639   56.9375 C.3     1  ZINC000753658424   -0.0500
     24 C24       -13.8059   -3.9268   57.7827 C.3     1  ZINC000753658424   -0.1500
     25 C25       -13.1761   -1.5095   57.8341 C.3     1  ZINC000753658424   -0.1500
     26 H26       -15.7628   -2.4883   52.8135 H       1  ZINC000753658424    0.0800
     27 H27       -14.4580   -3.6194   52.3822 H       1  ZINC000753658424    0.1000
     28 H28       -15.2767   -3.7636   53.9560 H       1  ZINC000753658424    0.0900
     29 H29       -10.7018   -2.0186   52.2125 H       1  ZINC000753658424    0.0900
     30 H30       -10.5778   -3.7926   52.1358 H       1  ZINC000753658424    0.0800
     31 H31       -12.1434   -2.9966   51.8467 H       1  ZINC000753658424    0.0900
     32 H32        -9.8001   -3.8096   54.7007 H       1  ZINC000753658424    0.4200
     33 H33       -10.0178   -1.9945   57.8024 H       1  ZINC000753658424    0.4000
     34 H34       -10.2036   -4.0090   59.8962 H       1  ZINC000753658424    0.0900
     35 H35        -8.5660   -3.7774   59.2386 H       1  ZINC000753658424    0.0800
     36 H36        -7.5763   -2.4528   61.1683 H       1  ZINC000753658424    0.3900
     37 H37       -10.4017    0.5241   61.0294 H       1  ZINC000753658424    0.1500
     38 H38       -12.9749    0.4705   61.8488 H       1  ZINC000753658424    0.1500
     39 H39       -14.8026   -2.1372   60.9313 H       1  ZINC000753658424    0.0800
     40 H40       -14.0835   -3.1930   62.1708 H       1  ZINC000753658424    0.0800
     41 H41       -14.5896   -1.5399   62.5945 H       1  ZINC000753658424    0.0900
     42 H42       -14.5759   -2.4070   56.4644 H       1  ZINC000753658424    0.1100
     43 H43       -12.8942   -4.1159   58.3494 H       1  ZINC000753658424    0.0500
     44 H44       -14.6396   -3.7889   58.4711 H       1  ZINC000753658424    0.0600
     45 H45       -14.0105   -4.7753   57.1297 H       1  ZINC000753658424    0.0600
     46 H46       -13.1262   -0.5921   57.2476 H       1  ZINC000753658424    0.0500
     47 H47       -13.8889   -1.3816   58.6487 H       1  ZINC000753658424    0.0600
     48 H48       -12.1913   -1.7324   58.2445 H       1  ZINC000753658424    0.0600
@<TRIPOS>BOND
     1     1     2    1
     2     1    26    1
     3     1    27    1
     4     1    28    1
     5     2     3    2
     6     2     4    1
     7     4    22    1
     8     4     5    2
     9     5     6    1
    10     5     7    1
    11     6    29    1
    12     6    30    1
    13     6    31    1
    14     7     8    1
    15     7    32    1
    16     8     9    1
    17     8    22    2
    18     9    10    2
    19     9    11   am
    20    11    12    1
    21    11    33    1
    22    12    13    1
    23    12    34    1
    24    12    35    1
    25    13    14    1
    26    13    15    1
    27    13    16    1
    28    15    36    1
    29    16    21    1
    30    16    17    2
    31    17    18    1
    32    17    37    1
    33    18    19    2
    34    18    38    1
    35    19    20    1
    36    19    21    1
    37    20    39    1
    38    20    40    1
    39    20    41    1
    40    22    23    1
    41    23    24    1
    42    23    25    1
    43    23    42    1
    44    24    43    1
    45    24    44    1
    46    24    45    1
    47    25    46    1
    48    25    47    1
    49    25    48    1
@<TRIPOS>SUBSTRUCTURE
     1 ZINC000753658424        1 TEMP              0 ****  ****    0 ROOT


##########                                Name:    ZINC000826052721
##########                DOCK_Rotatable_Bonds:                   3
##########                         Heavy_Atoms:                  29
##########                    Molecular_Weight:             393.399
##########                DOCK_Rotatable_Bonds:                   3
##########                       Formal_Charge:        -4.47035e-07
##########                     HBond_Acceptors:                   9
##########                        HBond_Donors:                   2
##########                         Heavy_Atoms:                  29
##########                          Grid_Score:          -33.902157
##########                     Grid_vdw_energy:          -31.970610
##########                      Grid_es_energy:           -1.931549
##########           Internal_energy_repulsive:           20.053324

@<TRIPOS>MOLECULE
ZINC000826052721
 46 50 1 0 0
SMALL
USER_CHARGES


@<TRIPOS>ATOM
      1 C1         -8.4967   -3.9338   60.0059 C.3     1  ZINC000826052721   -0.0400
      2 N2         -8.7531   -2.4984   60.1844 N.4     1  ZINC000826052721   -0.3800
      3 H3         -7.9262   -1.9747   59.9395 H       1  ZINC000826052721    0.4300
      4 C4         -9.1056   -2.2332   61.5821 C.3     1  ZINC000826052721    0.0500
      5 C5         -9.5170   -0.7957   61.7609 C.ar    1  ZINC000826052721   -0.1300
      6 C6         -9.5084   -0.2577   63.0388 C.ar    1  ZINC000826052721   -0.1000
      7 C7         -9.8844    1.0546   63.2458 C.ar    1  ZINC000826052721   -0.1000
      8 C8        -10.2719    1.8374   62.1745 C.ar    1  ZINC000826052721   -0.0800
      9 C9        -10.2796    1.3037   60.9009 C.ar    1  ZINC000826052721   -0.0800
     10 C10        -9.9012   -0.0130   60.6923 C.ar    1  ZINC000826052721   -0.1200
     11 C11        -9.9201   -0.5569   59.2866 C.3     1  ZINC000826052721    0.1100
     12 H12        -9.0552   -0.1800   58.7405 H       1  ZINC000826052721    0.1100
     13 N13       -11.1507   -0.1236   58.6117 N.3     1  ZINC000826052721   -0.6200
     14 C14       -11.3594   -0.8450   57.4508 C.ar    1  ZINC000826052721    0.1600
     15 C15       -10.6589   -0.5445   56.2775 C.ar    1  ZINC000826052721   -0.0400
     16 C16        -9.6757    0.5579   56.2575 C.2     1  ZINC000826052721    0.0700
     17 N17        -8.8160    0.8443   55.2768 N.2     1  ZINC000826052721   -0.3800
     18 N18        -8.1391    1.8779   55.6452 N.2     1  ZINC000826052721   -0.1600
     19 N19        -8.5286    2.2465   56.8150 N.2     1  ZINC000826052721   -0.1700
     20 N20        -9.4674    1.4607   57.2189 N.pl3   1  ZINC000826052721   -0.3400
     21 C21       -10.8959   -1.3030   55.1221 C.ar    1  ZINC000826052721    0.1800
     22 N22       -11.7649   -2.2822   55.1091 N.ar    1  ZINC000826052721   -0.4700
     23 C23       -12.4715   -2.6170   56.1970 C.ar    1  ZINC000826052721    0.0900
     24 C24       -13.4003   -3.6728   56.1546 C.ar    1  ZINC000826052721    0.1700
     25 F25       -13.5885   -4.3642   55.0094 F       1  ZINC000826052721   -0.1100
     26 C26       -14.1094   -3.9967   57.2736 C.ar    1  ZINC000826052721   -0.1900
     27 C27       -13.9300   -3.2957   58.4648 C.ar    1  ZINC000826052721    0.1300
     28 F28       -14.6475   -3.6397   59.5566 F       1  ZINC000826052721   -0.1300
     29 C29       -13.0378   -2.2654   58.5407 C.ar    1  ZINC000826052721   -0.1500
     30 C30       -12.2926   -1.9077   57.4084 C.ar    1  ZINC000826052721   -0.0600
     31 C31        -9.8714   -2.0850   59.3235 C.3     1  ZINC000826052721    0.0000
     32 H32        -9.3919   -4.4981   60.2674 H       1  ZINC000826052721    0.1200
     33 H33        -8.2347   -4.1296   58.9660 H       1  ZINC000826052721    0.1300
     34 H34        -7.6733   -4.2389   60.6516 H       1  ZINC000826052721    0.1200
     35 H35        -8.2437   -2.4419   62.2160 H       1  ZINC000826052721    0.1400
     36 H36        -9.9311   -2.8823   61.8740 H       1  ZINC000826052721    0.1400
     37 H37        -9.2056   -0.8682   63.8766 H       1  ZINC000826052721    0.1300
     38 H38        -9.8757    1.4689   64.2431 H       1  ZINC000826052721    0.1300
     39 H39       -10.5674    2.8641   62.3332 H       1  ZINC000826052721    0.1300
     40 H40       -10.5815    1.9153   60.0635 H       1  ZINC000826052721    0.1400
     41 H41       -11.1299    0.8673   58.4228 H       1  ZINC000826052721    0.4100
     42 H42       -10.3507   -1.0708   54.2191 H       1  ZINC000826052721    0.1800
     43 H43       -14.8210   -4.8083   57.2360 H       1  ZINC000826052721    0.1600
     44 H44       -12.9068   -1.7283   59.4686 H       1  ZINC000826052721    0.1400
     45 H45       -10.8073   -2.4712   59.7273 H       1  ZINC000826052721    0.1400
     46 H46        -9.7179   -2.4706   58.3156 H       1  ZINC000826052721    0.1400
@<TRIPOS>BOND
     1     1     2    1
     2     1    32    1
     3     1    33    1
     4     1    34    1
     5     2     3    1
     6     2    31    1
     7     2     4    1
     8     4     5    1
     9     4    35    1
    10     4    36    1
    11     5    10   ar
    12     5     6   ar
    13     6     7   ar
    14     6    37    1
    15     7     8   ar
    16     7    38    1
    17     8     9   ar
    18     8    39    1
    19     9    10   ar
    20     9    40    1
    21    10    11    1
    22    11    12    1
    23    11    13    1
    24    11    31    1
    25    13    14    1
    26    13    41    1
    27    14    30   ar
    28    14    15   ar
    29    15    16    1
    30    15    21   ar
    31    16    20    1
    32    16    17    2
    33    17    18    1
    34    18    19    2
    35    19    20    1
    36    21    22   ar
    37    21    42    1
    38    22    23   ar
    39    23    30   ar
    40    23    24   ar
    41    24    25    1
    42    24    26   ar
    43    26    27   ar
    44    26    43    1
    45    27    28    1
    46    27    29   ar
    47    29    30   ar
    48    29    44    1
    49    31    45    1
    50    31    46    1
@<TRIPOS>SUBSTRUCTURE
     1 ZINC000826052721        1 TEMP              0 ****  ****    0 ROOT


##########                                Name:    ZINC000182044395
##########                DOCK_Rotatable_Bonds:                   8
##########                         Heavy_Atoms:                  28
##########                    Molecular_Weight:             398.889
##########                DOCK_Rotatable_Bonds:                   8
##########                       Formal_Charge:          -0.0399999
##########                     HBond_Acceptors:                   6
##########                        HBond_Donors:                   2
##########                         Heavy_Atoms:                  28
##########                          Grid_Score:          -33.900932
##########                     Grid_vdw_energy:          -34.064663
##########                      Grid_es_energy:            0.163731
##########           Internal_energy_repulsive:           18.509600

@<TRIPOS>MOLECULE
ZINC000182044395
 51 53 1 0 0
SMALL
USER_CHARGES


@<TRIPOS>ATOM
      1 C1         -9.8685    4.5944   52.2732 C.3     1  ZINC000182044395   -0.1800
      2 C2         -9.4283    3.7183   53.4479 C.3     1  ZINC000182044395    0.0800
      3 N3         -9.1088    2.3738   52.9615 N.pl3   1  ZINC000182044395   -0.4800
      4 C4        -10.0414    1.4176   53.0612 C.2     1  ZINC000182044395    0.2500
      5 C5         -9.8204    0.1269   52.6272 C.2     1  ZINC000182044395   -0.3500
      6 C6        -10.8713   -0.8950   52.7542 C.2     1  ZINC000182044395    0.5900
      7 O7        -11.8736   -0.8252   52.0684 O.2     1  ZINC000182044395   -0.5600
      8 N8        -10.7235   -1.9084   53.6303 N.am    1  ZINC000182044395   -0.7200
      9 C9        -11.7699   -2.9260   53.7567 C.3     1  ZINC000182044395    0.1100
     10 H10       -12.7055   -2.5369   53.3549 H       1  ZINC000182044395    0.0900
     11 C11       -11.3613   -4.1773   52.9770 C.3     1  ZINC000182044395   -0.1600
     12 C12       -11.9581   -3.2833   55.2325 C.3     1  ZINC000182044395    0.1100
     13 H13       -12.7213   -4.0560   55.3246 H       1  ZINC000182044395    0.1100
     14 O14       -10.7240   -3.7665   55.7666 O.3     1  ZINC000182044395   -0.5500
     15 C15       -12.3964   -2.0386   56.0067 C.3     1  ZINC000182044395   -0.1100
     16 C16       -11.3895   -1.7386   57.0871 C.ar    1  ZINC000182044395   -0.0800
     17 C17       -10.3313   -0.8874   56.8287 C.ar    1  ZINC000182044395   -0.1000
     18 C18        -9.4075   -0.6126   57.8196 C.ar    1  ZINC000182044395   -0.1200
     19 C19        -9.5423   -1.1882   59.0691 C.ar    1  ZINC000182044395   -0.1200
     20 C20       -10.5977   -2.0432   59.3261 C.ar    1  ZINC000182044395   -0.1200
     21 C21       -11.5238   -2.3150   58.3363 C.ar    1  ZINC000182044395   -0.1200
     22 C22        -8.5142   -0.2124   52.0410 C.2     1  ZINC000182044395    0.4400
     23 O23        -8.2681   -1.3392   51.6478 O.2     1  ZINC000182044395   -0.4900
     24 C24        -7.5174    0.8703   51.9444 C.ar    1  ZINC000182044395   -0.1800
     25 C25        -6.2549    0.6419   51.3979 C.ar    1  ZINC000182044395   -0.0200
     26 C26        -5.3456    1.6757   51.3291 C.ar    1  ZINC000182044395   -0.0700
     27 Cl27       -3.7717    1.3991   50.6507 Cl      1  ZINC000182044395   -0.0500
     28 C28        -5.6835    2.9376   51.7998 C.ar    1  ZINC000182044395   -0.0500
     29 C29        -6.9275    3.1765   52.3415 C.ar    1  ZINC000182044395   -0.1600
     30 C30        -7.8613    2.1467   52.4212 C.ar    1  ZINC000182044395    0.1900
     31 H31       -10.7510    4.1580   51.8052 H       1  ZINC000182044395    0.0700
     32 H32       -10.1063    5.5947   52.6351 H       1  ZINC000182044395    0.0800
     33 H33        -9.0620    4.6544   51.5426 H       1  ZINC000182044395    0.0700
     34 H34       -10.2350    3.6582   54.1786 H       1  ZINC000182044395    0.1000
     35 H35        -8.5459    4.1546   53.9158 H       1  ZINC000182044395    0.1100
     36 H36       -10.9986    1.6653   53.4957 H       1  ZINC000182044395    0.1800
     37 H37        -9.9242   -1.9642   54.1771 H       1  ZINC000182044395    0.4100
     38 H38       -11.2273   -3.9227   51.9257 H       1  ZINC000182044395    0.0600
     39 H39       -10.4258   -4.5665   53.3788 H       1  ZINC000182044395    0.0600
     40 H40       -12.1399   -4.9344   53.0711 H       1  ZINC000182044395    0.0600
     41 H41       -10.7959   -4.1226   56.6629 H       1  ZINC000182044395    0.3700
     42 H42       -13.3722   -2.2167   56.4587 H       1  ZINC000182044395    0.0800
     43 H43       -12.4612   -1.1907   55.3248 H       1  ZINC000182044395    0.0800
     44 H44       -10.2263   -0.4374   55.8526 H       1  ZINC000182044395    0.1200
     45 H45        -8.5806    0.0521   57.6175 H       1  ZINC000182044395    0.1200
     46 H46        -8.8205   -0.9735   59.8433 H       1  ZINC000182044395    0.1200
     47 H47       -10.7005   -2.4965   60.3009 H       1  ZINC000182044395    0.1200
     48 H48       -12.3503   -2.9802   58.5382 H       1  ZINC000182044395    0.1200
     49 H49        -5.9912   -0.3390   51.0308 H       1  ZINC000182044395    0.1500
     50 H50        -4.9636    3.7404   51.7404 H       1  ZINC000182044395    0.1500
     51 H51        -7.1784    4.1624   52.7039 H       1  ZINC000182044395    0.1500
@<TRIPOS>BOND
     1     1     2    1
     2     1    31    1
     3     1    32    1
     4     1    33    1
     5     2     3    1
     6     2    34    1
     7     2    35    1
     8     3    30    1
     9     3     4    1
    10     4     5    2
    11     4    36    1
    12     5     6    1
    13     5    22    1
    14     6     7    2
    15     6     8   am
    16     8     9    1
    17     8    37    1
    18     9    10    1
    19     9    11    1
    20     9    12    1
    21    11    38    1
    22    11    39    1
    23    11    40    1
    24    12    13    1
    25    12    14    1
    26    12    15    1
    27    14    41    1
    28    15    16    1
    29    15    42    1
    30    15    43    1
    31    16    21   ar
    32    16    17   ar
    33    17    18   ar
    34    17    44    1
    35    18    19   ar
    36    18    45    1
    37    19    20   ar
    38    19    46    1
    39    20    21   ar
    40    20    47    1
    41    21    48    1
    42    22    23    2
    43    22    24    1
    44    24    30   ar
    45    24    25   ar
    46    25    26   ar
    47    25    49    1
    48    26    27    1
    49    26    28   ar
    50    28    29   ar
    51    28    50    1
    52    29    30   ar
    53    29    51    1
@<TRIPOS>SUBSTRUCTURE
     1 ZINC000182044395        1 TEMP              0 ****  ****    0 ROOT


##########                                Name:    ZINC001078110631
##########                DOCK_Rotatable_Bonds:                   7
##########                         Heavy_Atoms:                  25
##########                    Molecular_Weight:             353.369
##########                DOCK_Rotatable_Bonds:                   7
##########                       Formal_Charge:           0.0100006
##########                     HBond_Acceptors:                   8
##########                        HBond_Donors:                   2
##########                         Heavy_Atoms:                  25
##########                          Grid_Score:          -33.865231
##########                     Grid_vdw_energy:          -32.648754
##########                      Grid_es_energy:           -1.216477
##########           Internal_energy_repulsive:            6.232447

@<TRIPOS>MOLECULE
ZINC001078110631
 46 48 1 0 0
SMALL
USER_CHARGES


@<TRIPOS>ATOM
      1 O1        -12.3079   -5.3974   57.0642 O.2     1  ZINC001078110631   -0.5100
      2 C2        -11.8912   -4.2551   57.0590 C.2     1  ZINC001078110631    0.5600
      3 N3        -12.0887   -3.4707   55.9809 N.am    1  ZINC001078110631   -0.7200
      4 C4        -12.8003   -3.9962   54.8131 C.3     1  ZINC001078110631    0.1500
      5 H5        -12.6844   -5.0785   54.7555 H       1  ZINC001078110631    0.1200
      6 C6        -12.2763   -3.3314   53.5221 C.3     1  ZINC001078110631    0.0300
      7 N7        -13.4828   -3.1625   52.6718 N.3     1  ZINC001078110631   -0.5000
      8 C8        -13.2671   -2.1279   51.6515 C.3     1  ZINC001078110631    0.0300
      9 C9        -14.4813   -2.0666   50.7227 C.3     1  ZINC001078110631    0.1300
     10 N10       -14.3225   -0.9529   49.7842 N.am    1  ZINC001078110631   -0.6200
     11 C11       -14.4052    0.4638   50.1589 C.3     1  ZINC001078110631    0.1000
     12 C12       -13.7582    1.2378   48.9889 C.3     1  ZINC001078110631   -0.1300
     13 C13       -13.9666    0.2593   47.8099 C.3     1  ZINC001078110631   -0.1600
     14 C14       -14.0768   -1.0971   48.4706 C.2     1  ZINC001078110631    0.5200
     15 O15       -13.9667   -2.1602   47.8972 O.2     1  ZINC001078110631   -0.5200
     16 C16       -14.5472   -2.7563   53.6252 C.3     1  ZINC001078110631    0.0000
     17 C17       -14.2947   -3.6202   54.8823 C.3     1  ZINC001078110631    0.1000
     18 H18       -14.4985   -3.0440   55.7849 H       1  ZINC001078110631    0.0700
     19 O19       -15.1089   -4.7942   54.8495 O.3     1  ZINC001078110631   -0.5500
     20 C20       -11.1744   -3.7257   58.2353 C.ar    1  ZINC001078110631   -0.1900
     21 C21       -10.0368   -4.3785   58.7158 C.ar    1  ZINC001078110631   -0.0300
     22 C22        -9.3713   -3.8801   59.8145 C.ar    1  ZINC001078110631   -0.1700
     23 C23        -9.8279   -2.7319   60.4449 C.ar    1  ZINC001078110631    0.1600
     24 F24        -9.1703   -2.2490   61.5217 F       1  ZINC001078110631   -0.1200
     25 C25       -10.9551   -2.0779   59.9748 C.ar    1  ZINC001078110631   -0.2000
     26 C26       -11.6284   -2.5645   58.8708 C.ar    1  ZINC001078110631    0.2000
     27 F27       -12.7276   -1.9268   58.4123 F       1  ZINC001078110631   -0.1000
     28 H28       -11.7599   -2.5581   55.9784 H       1  ZINC001078110631    0.4000
     29 H29       -11.8312   -2.3622   53.7473 H       1  ZINC001078110631    0.0500
     30 H30       -11.5510   -3.9784   53.0288 H       1  ZINC001078110631    0.1000
     31 H31       -13.1318   -1.1614   52.1370 H       1  ZINC001078110631    0.0400
     32 H32       -12.3772   -2.3703   51.0707 H       1  ZINC001078110631    0.0800
     33 H33       -14.5616   -3.0011   50.1673 H       1  ZINC001078110631    0.0900
     34 H34       -15.3843   -1.9171   51.3146 H       1  ZINC001078110631    0.0800
     35 H35       -15.4467    0.7622   50.2782 H       1  ZINC001078110631    0.0700
     36 H36       -13.8526    0.6430   51.0811 H       1  ZINC001078110631    0.0800
     37 H37       -14.2766    2.1798   48.8104 H       1  ZINC001078110631    0.0900
     38 H38       -12.6971    1.4068   49.1727 H       1  ZINC001078110631    0.0800
     39 H39       -14.8828    0.5010   47.2710 H       1  ZINC001078110631    0.1100
     40 H40       -13.1093    0.2843   47.1372 H       1  ZINC001078110631    0.1000
     41 H41       -14.4575   -1.6972   53.8665 H       1  ZINC001078110631    0.0600
     42 H42       -15.5318   -2.9703   53.2095 H       1  ZINC001078110631    0.0900
     43 H43       -14.7430   -5.5118   54.3145 H       1  ZINC001078110631    0.3800
     44 H44        -9.6794   -5.2727   58.2269 H       1  ZINC001078110631    0.1500
     45 H45        -8.4919   -4.3849   60.1861 H       1  ZINC001078110631    0.1500
     46 H46       -11.3060   -1.1844   60.4698 H       1  ZINC001078110631    0.1600
@<TRIPOS>BOND
     1     1     2    2
     2     2     3   am
     3     2    20    1
     4     3     4    1
     5     3    28    1
     6     4     5    1
     7     4    17    1
     8     4     6    1
     9     6     7    1
    10     6    29    1
    11     6    30    1
    12     7     8    1
    13     7    16    1
    14     8     9    1
    15     8    31    1
    16     8    32    1
    17     9    10    1
    18     9    33    1
    19     9    34    1
    20    10    14   am
    21    10    11    1
    22    11    12    1
    23    11    35    1
    24    11    36    1
    25    12    13    1
    26    12    37    1
    27    12    38    1
    28    13    14    1
    29    13    39    1
    30    13    40    1
    31    14    15    2
    32    16    17    1
    33    16    41    1
    34    16    42    1
    35    17    18    1
    36    17    19    1
    37    19    43    1
    38    20    26   ar
    39    20    21   ar
    40    21    22   ar
    41    21    44    1
    42    22    23   ar
    43    22    45    1
    44    23    24    1
    45    23    25   ar
    46    25    26   ar
    47    25    46    1
    48    26    27    1
@<TRIPOS>SUBSTRUCTURE
     1 ZINC001078110631        1 TEMP              0 ****  ****    0 ROOT


##########                                Name:    ZINC000288921983
##########                DOCK_Rotatable_Bonds:                   6
##########                         Heavy_Atoms:                  26
##########                    Molecular_Weight:             356.428
##########                DOCK_Rotatable_Bonds:                   6
##########                       Formal_Charge:           0.0199997
##########                     HBond_Acceptors:                   8
##########                        HBond_Donors:                   1
##########                         Heavy_Atoms:                  26
##########                          Grid_Score:          -33.858757
##########                     Grid_vdw_energy:          -32.545944
##########                      Grid_es_energy:           -1.312811
##########           Internal_energy_repulsive:           59.806900

@<TRIPOS>MOLECULE
ZINC000288921983
 50 53 1 0 0
SMALL
USER_CHARGES


@<TRIPOS>ATOM
      1 C1         -9.1927   -2.2716   60.9297 C.3     1  ZINC000288921983   -0.1400
      2 C2         -9.1024   -3.5100   60.0359 C.3     1  ZINC000288921983   -0.0500
      3 C3        -10.0633   -3.3691   58.8836 C.ar    1  ZINC000288921983    0.3000
      4 N4        -10.4197   -2.1623   58.4917 N.ar    1  ZINC000288921983   -0.5000
      5 C5        -11.2607   -1.9962   57.4844 C.ar    1  ZINC000288921983    0.1300
      6 C6        -11.7695   -3.1190   56.8372 C.ar    1  ZINC000288921983    0.0500
      7 N7        -12.6617   -2.9881   55.7663 N.am    1  ZINC000288921983   -0.6700
      8 C8        -12.2202   -2.5490   54.5710 C.2     1  ZINC000288921983    0.7100
      9 O9        -11.0469   -2.2664   54.4228 O.2     1  ZINC000288921983   -0.5500
     10 N10       -13.0791   -2.4230   53.5401 N.am    1  ZINC000288921983   -0.6200
     11 C11       -14.4997   -2.7604   53.7039 C.3     1  ZINC000288921983    0.1100
     12 C12       -15.3453   -1.5633   53.2582 C.3     1  ZINC000288921983   -0.1400
     13 C13       -14.9531   -1.1695   51.8323 C.3     1  ZINC000288921983   -0.1200
     14 C14       -13.4794   -0.7578   51.8020 C.3     1  ZINC000288921983   -0.1300
     15 C15       -12.6138   -1.9400   52.2329 C.3     1  ZINC000288921983    0.2700
     16 H16       -12.7014   -2.7429   51.5009 H       1  ZINC000288921983    0.1100
     17 C17       -11.1752   -1.5027   52.3334 C.2     1  ZINC000288921983    0.1700
     18 N18       -10.1323   -2.1931   51.9692 N.2     1  ZINC000288921983   -0.2500
     19 N19        -9.0664   -1.5099   52.1986 N.2     1  ZINC000288921983   -0.2700
     20 C20        -9.3932   -0.3602   52.7170 C.2     1  ZINC000288921983    0.1800
     21 C21        -8.4428    0.7334   53.1315 C.3     1  ZINC000288921983   -0.0300
     22 C22        -7.7465    1.4257   51.9481 C.3     1  ZINC000288921983   -0.1200
     23 C23        -8.9370    2.3985   51.9183 C.3     1  ZINC000288921983   -0.1400
     24 C24        -9.1348    2.0783   53.4094 C.3     1  ZINC000288921983   -0.1200
     25 O25       -10.7332   -0.3266   52.8097 O.3     1  ZINC000288921983   -0.2200
     26 C26       -11.3673   -4.3753   57.2825 C.ar    1  ZINC000288921983    0.1600
     27 N27       -10.5184   -4.4562   58.2936 N.ar    1  ZINC000288921983   -0.5000
     28 H28        -8.4977   -2.3735   61.7632 H       1  ZINC000288921983    0.0700
     29 H29        -8.9365   -1.3852   60.3494 H       1  ZINC000288921983    0.0600
     30 H30       -10.2083   -2.1737   61.3134 H       1  ZINC000288921983    0.0600
     31 H31        -8.0868   -3.6080   59.6523 H       1  ZINC000288921983    0.0900
     32 H32        -9.3586   -4.3964   60.6163 H       1  ZINC000288921983    0.0900
     33 H33       -11.5487   -1.0043   57.1689 H       1  ZINC000288921983    0.1700
     34 H34       -13.5978   -3.2136   55.8846 H       1  ZINC000288921983    0.4100
     35 H35       -14.7424   -3.6279   53.0901 H       1  ZINC000288921983    0.0800
     36 H36       -14.7041   -2.9824   54.7512 H       1  ZINC000288921983    0.0800
     37 H37       -16.4009   -1.8339   53.2836 H       1  ZINC000288921983    0.0900
     38 H38       -15.1685   -0.7229   53.9295 H       1  ZINC000288921983    0.0700
     39 H39       -15.1069   -2.0181   51.1658 H       1  ZINC000288921983    0.0700
     40 H40       -15.5705   -0.3334   51.5037 H       1  ZINC000288921983    0.0800
     41 H41       -13.2070   -0.4552   50.7909 H       1  ZINC000288921983    0.0900
     42 H42       -13.3202    0.0750   52.4870 H       1  ZINC000288921983    0.0900
     43 H43        -7.7589    0.4229   53.9215 H       1  ZINC000288921983    0.1000
     44 H44        -6.8017    1.9000   52.2141 H       1  ZINC000288921983    0.1000
     45 H45        -7.6715    0.8000   51.0588 H       1  ZINC000288921983    0.0800
     46 H46        -8.6510    3.4330   51.7282 H       1  ZINC000288921983    0.0700
     47 H47        -9.7595    2.0628   51.2868 H       1  ZINC000288921983    0.1000
     48 H48       -10.1808    1.9794   53.6997 H       1  ZINC000288921983    0.0700
     49 H49        -8.5697    2.7309   54.0749 H       1  ZINC000288921983    0.1000
     50 H50       -11.7399   -5.2705   56.8069 H       1  ZINC000288921983    0.1800
@<TRIPOS>BOND
     1     1     2    1
     2     1    28    1
     3     1    29    1
     4     1    30    1
     5     2     3    1
     6     2    31    1
     7     2    32    1
     8     3    27   ar
     9     3     4   ar
    10     4     5   ar
    11     5     6   ar
    12     5    33    1
    13     6     7    1
    14     6    26   ar
    15     7     8   am
    16     7    34    1
    17     8     9    2
    18     8    10   am
    19    10    15    1
    20    10    11    1
    21    11    12    1
    22    11    35    1
    23    11    36    1
    24    12    13    1
    25    12    37    1
    26    12    38    1
    27    13    14    1
    28    13    39    1
    29    13    40    1
    30    14    15    1
    31    14    41    1
    32    14    42    1
    33    15    16    1
    34    15    17    1
    35    17    25    1
    36    17    18    2
    37    18    19    1
    38    19    20    2
    39    20    21    1
    40    20    25    1
    41    21    24    1
    42    21    22    1
    43    21    43    1
    44    22    23    1
    45    22    44    1
    46    22    45    1
    47    23    24    1
    48    23    46    1
    49    23    47    1
    50    24    48    1
    51    24    49    1
    52    26    27   ar
    53    26    50    1
@<TRIPOS>SUBSTRUCTURE
     1 ZINC000288921983        1 TEMP              0 ****  ****    0 ROOT


##########                                Name:    ZINC000942890482
##########                DOCK_Rotatable_Bonds:                   8
##########                         Heavy_Atoms:                  25
##########                    Molecular_Weight:             346.445
##########                DOCK_Rotatable_Bonds:                   8
##########                       Formal_Charge:          -0.0100004
##########                     HBond_Acceptors:                   5
##########                        HBond_Donors:                   0
##########                         Heavy_Atoms:                  25
##########                          Grid_Score:          -33.842117
##########                     Grid_vdw_energy:          -33.517742
##########                      Grid_es_energy:           -0.324375
##########           Internal_energy_repulsive:           27.585453

@<TRIPOS>MOLECULE
ZINC000942890482
 52 54 1 0 0
SMALL
USER_CHARGES


@<TRIPOS>ATOM
      1 C1        -14.3425   -3.5521   54.3692 C.3     1  ZINC000942890482   -0.1700
      2 C2        -13.2186   -4.5454   54.6711 C.3     1  ZINC000942890482    0.1000
      3 N3        -12.4164   -4.0491   55.7921 N.am    1  ZINC000942890482   -0.6000
      4 C4        -12.6737   -4.4742   57.0451 C.2     1  ZINC000942890482    0.5700
      5 O5        -13.5714   -5.2693   57.2448 O.2     1  ZINC000942890482   -0.5100
      6 C6        -11.8650   -3.9739   58.1754 C.ar    1  ZINC000942890482   -0.1400
      7 C7        -10.5738   -4.4630   58.3837 C.ar    1  ZINC000942890482   -0.0600
      8 C8         -9.8231   -3.9922   59.4398 C.ar    1  ZINC000942890482   -0.1600
      9 C9        -10.3481   -3.0351   60.2944 C.ar    1  ZINC000942890482    0.1300
     10 F10        -9.6084   -2.5772   61.3280 F       1  ZINC000942890482   -0.1300
     11 C11       -11.6298   -2.5457   60.0919 C.ar    1  ZINC000942890482   -0.1600
     12 C12       -12.3870   -3.0058   59.0363 C.ar    1  ZINC000942890482   -0.0100
     13 C13       -13.7795   -2.4731   58.8174 C.3     1  ZINC000942890482   -0.1200
     14 C14       -11.3347   -3.0910   55.5513 C.3     1  ZINC000942890482    0.1400
     15 H15       -10.4201   -3.4027   56.0558 H       1  ZINC000942890482    0.1100
     16 C16       -11.7509   -1.6613   55.9875 C.3     1  ZINC000942890482   -0.1500
     17 C17       -10.8799   -0.7585   55.0886 C.3     1  ZINC000942890482    0.1100
     18 N18       -10.4887   -1.5561   53.9171 N.am    1  ZINC000942890482   -0.6200
     19 C19        -9.7060   -1.1332   52.9047 C.2     1  ZINC000942890482    0.5300
     20 O20        -9.4482   -1.8801   51.9846 O.2     1  ZINC000942890482   -0.5400
     21 C21        -9.1509    0.2679   52.9160 C.3     1  ZINC000942890482   -0.1300
     22 C22        -7.8590    0.3112   52.0974 C.3     1  ZINC000942890482   -0.0700
     23 C23        -7.2385    1.7061   52.1972 C.3     1  ZINC000942890482   -0.1600
     24 C24        -6.7517    2.3571   50.9011 C.3     1  ZINC000942890482   -0.1800
     25 C25        -8.0190    2.8719   51.5867 C.3     1  ZINC000942890482   -0.1800
     26 C26       -11.0930   -2.8962   54.0337 C.3     1  ZINC000942890482    0.0900
     27 H27       -14.9764   -3.4422   55.2491 H       1  ZINC000942890482    0.0600
     28 H28       -13.9124   -2.5850   54.1083 H       1  ZINC000942890482    0.0600
     29 H29       -14.9392   -3.9213   53.5351 H       1  ZINC000942890482    0.0700
     30 H30       -13.6486   -5.5123   54.9321 H       1  ZINC000942890482    0.0900
     31 H31       -12.5846   -4.6552   53.7913 H       1  ZINC000942890482    0.0900
     32 H32       -10.1640   -5.2088   57.7187 H       1  ZINC000942890482    0.1400
     33 H33        -8.8245   -4.3700   59.6021 H       1  ZINC000942890482    0.1400
     34 H34       -12.0340   -1.8001   60.7606 H       1  ZINC000942890482    0.1400
     35 H35       -13.7299   -1.5580   58.2272 H       1  ZINC000942890482    0.0900
     36 H36       -14.3736   -3.2165   58.2859 H       1  ZINC000942890482    0.0700
     37 H37       -14.2424   -2.2593   59.7809 H       1  ZINC000942890482    0.0700
     38 H38       -12.8100   -1.4919   55.7935 H       1  ZINC000942890482    0.1000
     39 H39       -11.5191   -1.4963   57.0397 H       1  ZINC000942890482    0.0900
     40 H40       -11.4538    0.1116   54.7698 H       1  ZINC000942890482    0.0700
     41 H41        -9.9913   -0.4396   55.6334 H       1  ZINC000942890482    0.0700
     42 H42        -9.8801    0.9510   52.4806 H       1  ZINC000942890482    0.0900
     43 H43        -8.9406    0.5671   53.9428 H       1  ZINC000942890482    0.0900
     44 H44        -7.1577   -0.4271   52.4861 H       1  ZINC000942890482    0.0700
     45 H45        -8.0822    0.0866   51.0544 H       1  ZINC000942890482    0.0700
     46 H46        -6.6678    1.9029   53.1049 H       1  ZINC000942890482    0.1000
     47 H47        -5.8606    2.9824   50.9557 H       1  ZINC000942890482    0.0900
     48 H48        -6.8736    1.7917   49.9772 H       1  ZINC000942890482    0.0900
     49 H49        -8.9746    2.6450   51.1139 H       1  ZINC000942890482    0.0900
     50 H50        -7.9615    3.8357   52.0924 H       1  ZINC000942890482    0.0900
     51 H51       -10.4077   -3.6555   53.6570 H       1  ZINC000942890482    0.0800
     52 H52       -12.0381   -2.9346   53.4919 H       1  ZINC000942890482    0.0900
@<TRIPOS>BOND
     1     1     2    1
     2     1    27    1
     3     1    28    1
     4     1    29    1
     5     2     3    1
     6     2    30    1
     7     2    31    1
     8     3     4   am
     9     3    14    1
    10     4     5    2
    11     4     6    1
    12     6    12   ar
    13     6     7   ar
    14     7     8   ar
    15     7    32    1
    16     8     9   ar
    17     8    33    1
    18     9    10    1
    19     9    11   ar
    20    11    12   ar
    21    11    34    1
    22    12    13    1
    23    13    35    1
    24    13    36    1
    25    13    37    1
    26    14    15    1
    27    14    26    1
    28    14    16    1
    29    16    17    1
    30    16    38    1
    31    16    39    1
    32    17    18    1
    33    17    40    1
    34    17    41    1
    35    18    19   am
    36    18    26    1
    37    19    20    2
    38    19    21    1
    39    21    22    1
    40    21    42    1
    41    21    43    1
    42    22    23    1
    43    22    44    1
    44    22    45    1
    45    23    25    1
    46    23    24    1
    47    23    46    1
    48    24    25    1
    49    24    47    1
    50    24    48    1
    51    25    49    1
    52    25    50    1
    53    26    51    1
    54    26    52    1
@<TRIPOS>SUBSTRUCTURE
     1 ZINC000942890482        1 TEMP              0 ****  ****    0 ROOT


##########                                Name:    ZINC001570985666
##########                DOCK_Rotatable_Bonds:                   7
##########                         Heavy_Atoms:                  26
##########                    Molecular_Weight:             357.415
##########                DOCK_Rotatable_Bonds:                   7
##########                       Formal_Charge:          -0.0100001
##########                     HBond_Acceptors:                   9
##########                        HBond_Donors:                   3
##########                         Heavy_Atoms:                  26
##########                          Grid_Score:          -33.840225
##########                     Grid_vdw_energy:          -29.972321
##########                      Grid_es_energy:           -3.867903
##########           Internal_energy_repulsive:           10.988197

@<TRIPOS>MOLECULE
ZINC001570985666
 49 52 1 0 0
SMALL
USER_CHARGES


@<TRIPOS>ATOM
      1 C1        -13.9616   -5.2995   57.1432 C.3     1  ZINC001570985666   -0.1600
      2 C2        -14.1215   -3.7815   57.0375 C.3     1  ZINC001570985666    0.1300
      3 H3        -15.1534   -3.5340   56.7888 H       1  ZINC001570985666    0.0800
      4 C4        -13.1729   -3.2282   55.9532 C.3     1  ZINC001570985666    0.1400
      5 H5        -12.3360   -3.9072   55.7900 H       1  ZINC001570985666    0.1100
      6 N6        -13.8977   -2.9918   54.7022 N.am    1  ZINC001570985666   -0.7200
      7 C7        -13.2217   -2.6626   53.5837 C.2     1  ZINC001570985666    0.6000
      8 O8        -12.0102   -2.5604   53.6132 O.2     1  ZINC001570985666   -0.5300
      9 C9        -13.9504   -2.4267   52.3252 C.2     1  ZINC001570985666   -0.2300
     10 C10       -15.1730   -2.9567   51.9736 C.2     1  ZINC001570985666    0.0700
     11 N11       -15.4947   -2.4987   50.7474 N.pl3   1  ZINC001570985666   -0.5200
     12 C12       -14.4941   -1.6746   50.2947 C.2     1  ZINC001570985666    0.0600
     13 C13       -14.4734   -0.9750   48.9905 C.2     1  ZINC001570985666    0.2500
     14 N14       -13.5546   -0.1292   48.5639 N.2     1  ZINC001570985666   -0.3100
     15 N15       -13.8957    0.2606   47.3838 N.pl3   1  ZINC001570985666   -0.2200
     16 N16       -14.9996   -0.3101   47.0485 N.2     1  ZINC001570985666   -0.0400
     17 N17       -15.3820   -1.0813   48.0090 N.2     1  ZINC001570985666   -0.2600
     18 C18       -13.5299   -1.6055   51.2471 C.2     1  ZINC001570985666   -0.0600
     19 C19       -12.6831   -1.8912   56.5695 C.3     1  ZINC001570985666   -0.1500
     20 C20       -12.5981   -2.2543   58.0730 C.3     1  ZINC001570985666    0.1000
     21 N21       -13.7489   -3.1496   58.3117 N.am    1  ZINC001570985666   -0.6200
     22 C22       -14.3530   -3.3527   59.4993 C.2     1  ZINC001570985666    0.5300
     23 O23       -15.2933   -4.1146   59.5788 O.2     1  ZINC001570985666   -0.5300
     24 C24       -13.8599   -2.6333   60.7282 C.3     1  ZINC001570985666   -0.1300
     25 C25       -14.7482   -1.4171   60.9979 C.3     1  ZINC001570985666   -0.1000
     26 C26       -14.6272   -0.8715   62.4306 C.3     1  ZINC001570985666   -0.1300
     27 C27       -14.6883    0.5366   61.8155 C.3     1  ZINC001570985666   -0.1400
     28 C28       -14.1346   -0.0889   60.5244 C.3     1  ZINC001570985666   -0.1400
     29 H29       -14.6301   -5.6824   57.9144 H       1  ZINC001570985666    0.0700
     30 H30       -14.2101   -5.7585   56.1864 H       1  ZINC001570985666    0.0700
     31 H31       -12.9308   -5.5390   57.4043 H       1  ZINC001570985666    0.0600
     32 H32       -14.8641   -3.0722   54.6789 H       1  ZINC001570985666    0.4000
     33 H33       -15.7703   -3.6247   52.5764 H       1  ZINC001570985666    0.1800
     34 H34       -16.3051   -2.7171   50.2613 H       1  ZINC001570985666    0.4300
     35 H35       -13.3983    0.8863   46.8343 H       1  ZINC001570985666    0.4800
     36 H36       -12.6127   -1.0379   51.1920 H       1  ZINC001570985666    0.1600
     37 H37       -11.7037   -1.6162   56.1779 H       1  ZINC001570985666    0.0900
     38 H38       -13.4075   -1.0944   56.4003 H       1  ZINC001570985666    0.0800
     39 H39       -11.6628   -2.7719   58.2859 H       1  ZINC001570985666    0.0800
     40 H40       -12.6840   -1.3568   58.6854 H       1  ZINC001570985666    0.0800
     41 H41       -13.8977   -3.3076   61.5836 H       1  ZINC001570985666    0.0900
     42 H42       -12.8328   -2.3049   60.5693 H       1  ZINC001570985666    0.0900
     43 H43       -15.7776   -1.5638   60.6706 H       1  ZINC001570985666    0.1000
     44 H44       -15.4831   -1.1096   63.0623 H       1  ZINC001570985666    0.0700
     45 H45       -13.6730   -1.0995   62.9055 H       1  ZINC001570985666    0.0800
     46 H46       -15.7017    0.9246   61.7130 H       1  ZINC001570985666    0.0800
     47 H47       -14.0071    1.2474   62.2834 H       1  ZINC001570985666    0.0700
     48 H48       -13.0457   -0.1029   60.4781 H       1  ZINC001570985666    0.0800
     49 H49       -14.5928    0.3049   59.6171 H       1  ZINC001570985666    0.0700
@<TRIPOS>BOND
     1     1     2    1
     2     1    29    1
     3     1    30    1
     4     1    31    1
     5     2     3    1
     6     2    21    1
     7     2     4    1
     8     4     5    1
     9     4     6    1
    10     4    19    1
    11     6     7   am
    12     6    32    1
    13     7     8    2
    14     7     9    1
    15     9    18    1
    16     9    10    2
    17    10    11    1
    18    10    33    1
    19    11    12    1
    20    11    34    1
    21    12    13    1
    22    12    18    2
    23    13    17    1
    24    13    14    2
    25    14    15    1
    26    15    16    1
    27    15    35    1
    28    16    17    2
    29    18    36    1
    30    19    20    1
    31    19    37    1
    32    19    38    1
    33    20    21    1
    34    20    39    1
    35    20    40    1
    36    21    22   am
    37    22    23    2
    38    22    24    1
    39    24    25    1
    40    24    41    1
    41    24    42    1
    42    25    28    1
    43    25    26    1
    44    25    43    1
    45    26    27    1
    46    26    44    1
    47    26    45    1
    48    27    28    1
    49    27    46    1
    50    27    47    1
    51    28    48    1
    52    28    49    1
@<TRIPOS>SUBSTRUCTURE
     1 ZINC001570985666        1 TEMP              0 ****  ****    0 ROOT


##########                                Name:    ZINC001085817863
##########                DOCK_Rotatable_Bonds:                   7
##########                         Heavy_Atoms:                  24
##########                    Molecular_Weight:             326.442
##########                DOCK_Rotatable_Bonds:                   7
##########                       Formal_Charge:           0.0299998
##########                     HBond_Acceptors:                   5
##########                        HBond_Donors:                   0
##########                         Heavy_Atoms:                  24
##########                          Grid_Score:          -33.815910
##########                     Grid_vdw_energy:          -33.313316
##########                      Grid_es_energy:           -0.502593
##########           Internal_energy_repulsive:           16.345251

@<TRIPOS>MOLECULE
ZINC001085817863
 50 52 1 0 0
SMALL
USER_CHARGES


@<TRIPOS>ATOM
      1 C1        -13.8307   -1.9709   59.6700 C.3     1  ZINC001085817863   -0.1400
      2 C2        -12.9107   -1.6606   58.4875 C.3     1  ZINC001085817863   -0.0700
      3 C3        -11.7242   -2.5892   58.5169 C.2     1  ZINC001085817863    0.1100
      4 C4        -11.6325   -3.7908   57.8700 C.2     1  ZINC001085817863   -0.2400
      5 C5        -12.6584   -4.4196   57.0212 C.2     1  ZINC001085817863    0.6000
      6 O6        -13.5649   -5.0512   57.5296 O.2     1  ZINC001085817863   -0.5300
      7 N7        -12.5930   -4.2950   55.6807 N.am    1  ZINC001085817863   -0.6100
      8 C8        -13.6136   -4.9206   54.8363 C.3     1  ZINC001085817863    0.0800
      9 C9        -11.5011   -3.5342   55.0682 C.3     1  ZINC001085817863    0.1300
     10 C10       -12.0351   -2.7547   53.8649 C.3     1  ZINC001085817863    0.0100
     11 H11       -12.2699   -3.3978   53.0167 H       1  ZINC001085817863    0.0800
     12 C12       -13.1631   -1.7764   54.2214 C.3     1  ZINC001085817863   -0.1400
     13 C13       -12.4580   -0.8636   53.2085 C.3     1  ZINC001085817863    0.0000
     14 N14       -11.2070   -1.5881   53.5061 N.3     1  ZINC001085817863   -0.4400
     15 C15       -10.4408   -1.8419   52.2787 C.3     1  ZINC001085817863    0.0700
     16 C16        -9.3265   -0.8338   52.1647 C.ar    1  ZINC001085817863   -0.1300
     17 C17        -9.5732    0.5129   52.3825 C.ar    1  ZINC001085817863   -0.0700
     18 C18        -8.5174    1.4044   52.2671 C.ar    1  ZINC001085817863   -0.1700
     19 C19        -7.2633    0.9244   51.9412 C.ar    1  ZINC001085817863    0.1000
     20 N20        -7.0651   -0.3641   51.7409 N.ar    1  ZINC001085817863   -0.4800
     21 C21        -8.0442   -1.2409   51.8472 C.ar    1  ZINC001085817863    0.1200
     22 C22       -10.3054   -4.3262   58.1921 C.2     1  ZINC001085817863   -0.1900
     23 C23        -9.7159   -3.4202   58.9922 C.2     1  ZINC001085817863   -0.0200
     24 N24       -10.5719   -2.3743   59.1797 N.pl3   1  ZINC001085817863   -0.4400
     25 C25       -10.2828   -1.1915   59.9942 C.3     1  ZINC001085817863    0.0600
     26 H26       -14.6889   -1.2992   59.6489 H       1  ZINC001085817863    0.0600
     27 H27       -14.1751   -3.0028   59.6013 H       1  ZINC001085817863    0.0500
     28 H28       -13.2834   -1.8320   60.6024 H       1  ZINC001085817863    0.0600
     29 H29       -13.4579   -1.7996   57.5552 H       1  ZINC001085817863    0.0600
     30 H30       -12.5663   -0.6287   58.5563 H       1  ZINC001085817863    0.1100
     31 H31       -14.5963   -4.5353   55.1082 H       1  ZINC001085817863    0.0700
     32 H32       -13.4102   -4.6914   53.7903 H       1  ZINC001085817863    0.0700
     33 H33       -13.5938   -6.0006   54.9821 H       1  ZINC001085817863    0.0600
     34 H34       -11.0892   -2.8378   55.7986 H       1  ZINC001085817863    0.0800
     35 H35       -10.7202   -4.2199   54.7394 H       1  ZINC001085817863    0.1000
     36 H36       -14.1545   -2.1060   53.9106 H       1  ZINC001085817863    0.0800
     37 H37       -13.1303   -1.4127   55.2485 H       1  ZINC001085817863    0.1000
     38 H38       -12.8052   -1.0013   52.1845 H       1  ZINC001085817863    0.0700
     39 H39       -12.4360    0.1838   53.5096 H       1  ZINC001085817863    0.0800
     40 H40       -10.0196   -2.8466   52.3145 H       1  ZINC001085817863    0.0900
     41 H41       -11.0995   -1.7547   51.4147 H       1  ZINC001085817863    0.0500
     42 H42       -10.5643    0.8594   52.6356 H       1  ZINC001085817863    0.1300
     43 H43        -8.6733    2.4607   52.4296 H       1  ZINC001085817863    0.1300
     44 H44        -6.4358    1.6122   51.8491 H       1  ZINC001085817863    0.1600
     45 H45        -7.8438   -2.2881   51.6758 H       1  ZINC001085817863    0.1500
     46 H46        -9.8853   -5.2620   57.8541 H       1  ZINC001085817863    0.1600
     47 H47        -8.7253   -3.5046   59.4141 H       1  ZINC001085817863    0.1600
     48 H48        -9.8159   -0.4275   59.3725 H       1  ZINC001085817863    0.0800
     49 H49       -11.2112   -0.8023   60.4121 H       1  ZINC001085817863    0.0900
     50 H50        -9.6060   -1.4644   60.8039 H       1  ZINC001085817863    0.0900
@<TRIPOS>BOND
     1     1     2    1
     2     1    26    1
     3     1    27    1
     4     1    28    1
     5     2     3    1
     6     2    29    1
     7     2    30    1
     8     3    24    1
     9     3     4    2
    10     4     5    1
    11     4    22    1
    12     5     6    2
    13     5     7   am
    14     7     8    1
    15     7     9    1
    16     8    31    1
    17     8    32    1
    18     8    33    1
    19     9    10    1
    20     9    34    1
    21     9    35    1
    22    10    11    1
    23    10    14    1
    24    10    12    1
    25    12    13    1
    26    12    36    1
    27    12    37    1
    28    13    14    1
    29    13    38    1
    30    13    39    1
    31    14    15    1
    32    15    16    1
    33    15    40    1
    34    15    41    1
    35    16    21   ar
    36    16    17   ar
    37    17    18   ar
    38    17    42    1
    39    18    19   ar
    40    18    43    1
    41    19    20   ar
    42    19    44    1
    43    20    21   ar
    44    21    45    1
    45    22    23    2
    46    22    46    1
    47    23    24    1
    48    23    47    1
    49    24    25    1
    50    25    48    1
    51    25    49    1
    52    25    50    1
@<TRIPOS>SUBSTRUCTURE
     1 ZINC001085817863        1 TEMP              0 ****  ****    0 ROOT


##########                                Name:    ZINC000512239524
##########                DOCK_Rotatable_Bonds:                   9
##########                         Heavy_Atoms:                  31
##########                    Molecular_Weight:             424.518
##########                DOCK_Rotatable_Bonds:                   9
##########                       Formal_Charge:          0.00999919
##########                     HBond_Acceptors:                   7
##########                        HBond_Donors:                   1
##########                         Heavy_Atoms:                  31
##########                          Grid_Score:          -33.792686
##########                     Grid_vdw_energy:          -33.227501
##########                      Grid_es_energy:           -0.565184
##########           Internal_energy_repulsive:           30.797470

@<TRIPOS>MOLECULE
ZINC000512239524
 60 63 1 0 0
SMALL
USER_CHARGES


@<TRIPOS>ATOM
      1 C1        -12.8660   -2.4141   58.7407 C.3     1  ZINC000512239524   -0.1600
      2 C2        -11.3963   -2.3835   58.3166 C.3     1  ZINC000512239524    0.2000
      3 H3        -11.0837   -3.3838   58.0170 H       1  ZINC000512239524    0.1100
      4 N4        -11.2324   -1.4625   57.1892 N.am    1  ZINC000512239524   -0.7400
      5 C5        -11.4039   -1.9043   55.9276 C.2     1  ZINC000512239524    0.7100
      6 O6        -11.6947   -3.0675   55.7251 O.2     1  ZINC000512239524   -0.5800
      7 N7        -11.2532   -1.0569   54.8904 N.am    1  ZINC000512239524   -0.6300
      8 C8        -10.8963    0.3498   55.1189 C.3     1  ZINC000512239524    0.1300
      9 C9         -9.6560    0.6856   54.2846 C.3     1  ZINC000512239524   -0.1100
     10 C10        -9.9218    0.3346   52.8189 C.3     1  ZINC000512239524   -0.1000
     11 C11        -8.7161    0.6951   51.9899 C.2     1  ZINC000512239524    0.5300
     12 O12        -7.8926   -0.1524   51.7165 O.2     1  ZINC000512239524   -0.5300
     13 N13        -8.5528    1.9593   51.5520 N.am    1  ZINC000512239524   -0.5800
     14 C14        -7.3816    2.3094   50.7446 C.3     1  ZINC000512239524    0.1500
     15 C15        -6.2010    2.5498   51.6499 C.ar    1  ZINC000512239524   -0.1100
     16 C16        -6.4009    3.0028   52.9406 C.ar    1  ZINC000512239524   -0.0900
     17 C17        -5.3180    3.2233   53.7710 C.ar    1  ZINC000512239524   -0.1200
     18 C18        -4.0354    2.9904   53.3110 C.ar    1  ZINC000512239524   -0.1100
     19 C19        -3.8357    2.5365   52.0207 C.ar    1  ZINC000512239524   -0.1200
     20 C20        -4.9188    2.3118   51.1916 C.ar    1  ZINC000512239524   -0.1100
     21 C21        -9.5466    2.9833   51.8836 C.3     1  ZINC000512239524    0.0700
     22 C22        -9.1047    4.4463   51.8111 C.3     1  ZINC000512239524   -0.1900
     23 C23       -10.0455    3.8778   50.7471 C.3     1  ZINC000512239524   -0.2000
     24 C24       -10.1966   -1.1658   52.6936 C.3     1  ZINC000512239524   -0.1400
     25 C25       -11.4369   -1.5239   53.5095 C.3     1  ZINC000512239524    0.1100
     26 C26       -10.5495   -1.9179   59.4730 C.ar    1  ZINC000512239524   -0.0800
     27 C27       -10.5808   -0.5960   59.8883 C.ar    1  ZINC000512239524   -0.1400
     28 C28        -9.7906   -0.2051   60.9531 C.ar    1  ZINC000512239524    0.1000
     29 N29        -9.0133   -1.0721   61.5716 N.ar    1  ZINC000512239524   -0.4600
     30 C30        -8.9565   -2.3377   61.2055 C.ar    1  ZINC000512239524    0.0800
     31 C31        -9.7232   -2.8042   60.1517 C.ar    1  ZINC000512239524    0.0600
     32 F32        -9.6606   -4.1019   59.7814 F       1  ZINC000512239524   -0.1200
     33 H33       -13.4785   -2.7509   57.9044 H       1  ZINC000512239524    0.0700
     34 H34       -12.9879   -3.0995   59.5795 H       1  ZINC000512239524    0.0700
     35 H35       -13.1786   -1.4139   59.0403 H       1  ZINC000512239524    0.0600
     36 H36       -11.0004   -0.5345   57.3508 H       1  ZINC000512239524    0.3900
     37 H37       -11.7244    0.9907   54.8166 H       1  ZINC000512239524    0.0700
     38 H38       -10.6787    0.5046   56.1757 H       1  ZINC000512239524    0.1000
     39 H39        -9.4373    1.7500   54.3700 H       1  ZINC000512239524    0.0900
     40 H40        -8.8058    0.1087   54.6486 H       1  ZINC000512239524    0.0800
     41 H41       -10.7875    0.8931   52.4629 H       1  ZINC000512239524    0.1000
     42 H42        -7.1543    1.4916   50.0607 H       1  ZINC000512239524    0.0900
     43 H43        -7.5913    3.2135   50.1732 H       1  ZINC000512239524    0.1000
     44 H44        -7.4029    3.1848   53.3000 H       1  ZINC000512239524    0.1300
     45 H45        -5.4739    3.5779   54.7791 H       1  ZINC000512239524    0.1200
     46 H46        -3.1893    3.1633   53.9596 H       1  ZINC000512239524    0.1200
     47 H47        -2.8336    2.3548   51.6612 H       1  ZINC000512239524    0.1200
     48 H48        -4.7628    1.9572   50.1835 H       1  ZINC000512239524    0.1200
     49 H49       -10.2612    2.7110   52.6604 H       1  ZINC000512239524    0.1300
     50 H50        -9.5284    5.1367   52.5405 H       1  ZINC000512239524    0.1100
     51 H51        -8.0745    4.6468   51.5168 H       1  ZINC000512239524    0.1000
     52 H52        -9.6344    3.7044   49.7526 H       1  ZINC000512239524    0.1100
     53 H53       -11.0882    4.1942   50.7762 H       1  ZINC000512239524    0.1000
     54 H54       -10.3627   -1.4190   51.6466 H       1  ZINC000512239524    0.0900
     55 H55        -9.3412   -1.7252   53.0725 H       1  ZINC000512239524    0.0700
     56 H56       -11.5787   -2.6046   53.5037 H       1  ZINC000512239524    0.0800
     57 H57       -12.3113   -1.0362   53.0784 H       1  ZINC000512239524    0.0800
     58 H58       -11.2145    0.1199   59.3861 H       1  ZINC000512239524    0.1400
     59 H59        -9.8099    0.8234   61.2823 H       1  ZINC000512239524    0.1700
     60 H60        -8.3075   -3.0185   61.7361 H       1  ZINC000512239524    0.1700
@<TRIPOS>BOND
     1     1     2    1
     2     1    33    1
     3     1    34    1
     4     1    35    1
     5     2     3    1
     6     2     4    1
     7     2    26    1
     8     4     5   am
     9     4    36    1
    10     5     6    2
    11     5     7   am
    12     7    25    1
    13     7     8    1
    14     8     9    1
    15     8    37    1
    16     8    38    1
    17     9    10    1
    18     9    39    1
    19     9    40    1
    20    10    11    1
    21    10    24    1
    22    10    41    1
    23    11    12    2
    24    11    13   am
    25    13    14    1
    26    13    21    1
    27    14    15    1
    28    14    42    1
    29    14    43    1
    30    15    20   ar
    31    15    16   ar
    32    16    17   ar
    33    16    44    1
    34    17    18   ar
    35    17    45    1
    36    18    19   ar
    37    18    46    1
    38    19    20   ar
    39    19    47    1
    40    20    48    1
    41    21    23    1
    42    21    22    1
    43    21    49    1
    44    22    23    1
    45    22    50    1
    46    22    51    1
    47    23    52    1
    48    23    53    1
    49    24    25    1
    50    24    54    1
    51    24    55    1
    52    25    56    1
    53    25    57    1
    54    26    31   ar
    55    26    27   ar
    56    27    28   ar
    57    27    58    1
    58    28    29   ar
    59    28    59    1
    60    29    30   ar
    61    30    31   ar
    62    30    60    1
    63    31    32    1
@<TRIPOS>SUBSTRUCTURE
     1 ZINC000512239524        1 TEMP              0 ****  ****    0 ROOT


##########                                Name:    ZINC000867639366
##########                DOCK_Rotatable_Bonds:                   6
##########                         Heavy_Atoms:                  25
##########                    Molecular_Weight:             388.509
##########                DOCK_Rotatable_Bonds:                   6
##########                       Formal_Charge:          0.00999961
##########                     HBond_Acceptors:                   9
##########                        HBond_Donors:                   1
##########                         Heavy_Atoms:                  25
##########                          Grid_Score:          -33.774651
##########                     Grid_vdw_energy:          -33.096512
##########                      Grid_es_energy:           -0.678139
##########           Internal_energy_repulsive:           43.100697

@<TRIPOS>MOLECULE
ZINC000867639366
 49 51 1 0 0
SMALL
USER_CHARGES


@<TRIPOS>ATOM
      1 C1         -8.9502    0.6374   63.7568 C.3     1  ZINC000867639366    0.0300
      2 O2         -9.5135    0.0032   62.6068 O.3     1  ZINC000867639366   -0.3800
      3 C3        -10.0804    0.9122   61.6610 C.3     1  ZINC000867639366    0.0800
      4 H4         -9.5356    1.8558   61.6916 H       1  ZINC000867639366    0.0800
      5 C5        -11.5503    1.1595   62.0079 C.3     1  ZINC000867639366   -0.1400
      6 C6        -12.3091   -0.1694   61.9981 C.3     1  ZINC000867639366   -0.1200
      7 C7        -12.2399   -0.7821   60.5957 C.3     1  ZINC000867639366    0.1500
      8 H8        -12.7722   -0.1431   59.8912 H       1  ZINC000867639366    0.0800
      9 C9        -12.8787   -2.1722   60.6112 C.3     1  ZINC000867639366   -0.1900
     10 N10       -10.8302   -0.8891   60.1956 N.am    1  ZINC000867639366   -0.9800
     11 S11       -10.2051   -2.3358   59.6870 S.o2    1  ZINC000867639366    2.6900
     12 O12        -8.8845   -2.0662   59.2368 O.2     1  ZINC000867639366   -0.9500
     13 O13       -10.5011   -3.2812   60.7056 O.2     1  ZINC000867639366   -0.9400
     14 C14       -11.1235   -2.8305   58.2669 C.ar    1  ZINC000867639366   -0.6300
     15 C15       -11.3719   -4.1708   58.0369 C.ar    1  ZINC000867639366   -0.0500
     16 C16       -12.0924   -4.5589   56.9228 C.ar    1  ZINC000867639366   -0.0400
     17 C17       -12.5651   -3.6068   56.0391 C.ar    1  ZINC000867639366   -0.6300
     18 S18       -13.4830   -4.1015   54.6189 S.o2    1  ZINC000867639366    2.7000
     19 O19       -13.7110   -5.4974   54.7546 O.2     1  ZINC000867639366   -0.9400
     20 O20       -14.5311   -3.1538   54.4685 O.2     1  ZINC000867639366   -0.9500
     21 N21       -12.4919   -3.9151   53.3053 N.am    1  ZINC000867639366   -1.0800
     22 C22       -11.9506   -2.5938   52.9779 C.3     1  ZINC000867639366    0.0800
     23 C23       -10.7055   -2.1322   53.7380 C.3     1  ZINC000867639366   -0.1800
     24 C24       -10.5963   -2.5413   52.2678 C.3     1  ZINC000867639366   -0.1900
     25 C25       -12.3179   -2.2664   56.2700 C.ar    1  ZINC000867639366   -0.0400
     26 C26       -11.6006   -1.8780   57.3861 C.ar    1  ZINC000867639366   -0.0400
     27 C27        -9.9851    0.3122   60.2547 C.3     1  ZINC000867639366    0.1200
     28 H28        -8.1551    1.3148   63.4452 H       1  ZINC000867639366    0.0400
     29 H29        -9.7247    1.2011   64.2769 H       1  ZINC000867639366    0.0400
     30 H30        -8.5411   -0.1200   64.4255 H       1  ZINC000867639366    0.0900
     31 H31       -11.6188    1.6096   62.9983 H       1  ZINC000867639366    0.0700
     32 H32       -11.9887    1.8335   61.2719 H       1  ZINC000867639366    0.0700
     33 H33       -11.8558   -0.8526   62.7164 H       1  ZINC000867639366    0.0800
     34 H34       -13.3508    0.0044   62.2681 H       1  ZINC000867639366    0.0800
     35 H35       -13.9511   -2.0774   60.7818 H       1  ZINC000867639366    0.0700
     36 H36       -12.7051   -2.6625   59.6533 H       1  ZINC000867639366    0.0600
     37 H37       -12.4351   -2.7672   61.4095 H       1  ZINC000867639366    0.1000
     38 H38       -11.0026   -4.9147   58.7272 H       1  ZINC000867639366    0.1600
     39 H39       -12.2858   -5.6061   56.7427 H       1  ZINC000867639366    0.1500
     40 H40       -12.2700   -4.6807   52.7526 H       1  ZINC000867639366    0.4200
     41 H41       -12.6879   -1.8363   52.7119 H       1  ZINC000867639366    0.1400
     42 H42       -10.6237   -1.0709   53.9726 H       1  ZINC000867639366    0.1100
     43 H43       -10.2893   -2.8118   54.4818 H       1  ZINC000867639366    0.1000
     44 H44       -10.1082   -3.4900   52.0443 H       1  ZINC000867639366    0.1000
     45 H45       -10.4426   -1.7492   51.5351 H       1  ZINC000867639366    0.1000
     46 H46       -12.6875   -1.5225   55.5798 H       1  ZINC000867639366    0.1500
     47 H47       -11.4075   -0.8309   57.5664 H       1  ZINC000867639366    0.1500
     48 H48       -10.3336    1.0404   59.5223 H       1  ZINC000867639366    0.0900
     49 H49        -8.9509    0.0423   60.0412 H       1  ZINC000867639366    0.1000
@<TRIPOS>BOND
     1     1     2    1
     2     1    28    1
     3     1    29    1
     4     1    30    1
     5     2     3    1
     6     3     4    1
     7     3    27    1
     8     3     5    1
     9     5     6    1
    10     5    31    1
    11     5    32    1
    12     6     7    1
    13     6    33    1
    14     6    34    1
    15     7     8    1
    16     7     9    1
    17     7    10    1
    18     9    35    1
    19     9    36    1
    20     9    37    1
    21    10    11   am
    22    10    27    1
    23    11    12    2
    24    11    13    2
    25    11    14    1
    26    14    26   ar
    27    14    15   ar
    28    15    16   ar
    29    15    38    1
    30    16    17   ar
    31    16    39    1
    32    17    18    1
    33    17    25   ar
    34    18    19    2
    35    18    20    2
    36    18    21   am
    37    21    22    1
    38    21    40    1
    39    22    24    1
    40    22    23    1
    41    22    41    1
    42    23    24    1
    43    23    42    1
    44    23    43    1
    45    24    44    1
    46    24    45    1
    47    25    26   ar
    48    25    46    1
    49    26    47    1
    50    27    48    1
    51    27    49    1
@<TRIPOS>SUBSTRUCTURE
     1 ZINC000867639366        1 TEMP              0 ****  ****    0 ROOT


##########                                Name:    ZINC000821177065
##########                DOCK_Rotatable_Bonds:                  10
##########                         Heavy_Atoms:                  25
##########                    Molecular_Weight:             341.413
##########                DOCK_Rotatable_Bonds:                  10
##########                       Formal_Charge:          0.00999917
##########                     HBond_Acceptors:                   7
##########                        HBond_Donors:                   3
##########                         Heavy_Atoms:                  25
##########                          Grid_Score:          -33.748230
##########                     Grid_vdw_energy:          -30.867819
##########                      Grid_es_energy:           -2.880409
##########           Internal_energy_repulsive:           19.725203

@<TRIPOS>MOLECULE
ZINC000821177065
 48 51 1 0 0
SMALL
USER_CHARGES


@<TRIPOS>ATOM
      1 O1        -11.1280   -0.5618   54.3567 O.2     1  ZINC000821177065   -0.5600
      2 C2        -10.6587   -1.1279   53.3884 C.2     1  ZINC000821177065    0.7100
      3 N3        -10.0795   -0.4120   52.4043 N.am    1  ZINC000821177065   -0.7300
      4 C4        -10.0205    1.0488   52.4986 C.3     1  ZINC000821177065    0.1200
      5 C5         -8.5848    1.4829   52.8010 C.3     1  ZINC000821177065    0.1900
      6 O6         -7.9690    0.5242   53.6634 O.3     1  ZINC000821177065   -0.5400
      7 C7         -7.7942    1.5758   51.4945 C.3     1  ZINC000821177065   -0.1500
      8 C8         -6.2672    1.5612   51.5903 C.3     1  ZINC000821177065   -0.1600
      9 C9         -7.0117    0.3373   51.0528 C.3     1  ZINC000821177065   -0.1700
     10 C10        -8.5993    2.8506   53.4867 C.3     1  ZINC000821177065   -0.1800
     11 C11        -9.8520    3.7125   53.3175 C.3     1  ZINC000821177065   -0.1900
     12 C12        -9.5608    3.0418   54.6614 C.3     1  ZINC000821177065   -0.1700
     13 N13       -10.7129   -2.4718   53.3016 N.am    1  ZINC000821177065   -0.6500
     14 C14       -11.3155   -3.2165   54.3253 C.2     1  ZINC000821177065    0.3200
     15 N15       -10.8082   -3.4443   55.5137 N.2     1  ZINC000821177065   -0.3200
     16 N16       -11.7195   -4.2261   56.2351 N.pl3   1  ZINC000821177065   -0.3600
     17 C17       -11.5440   -4.7054   57.6083 C.3     1  ZINC000821177065    0.1900
     18 C18       -10.6701   -3.7417   58.3690 C.ar    1  ZINC000821177065    0.1100
     19 C19       -11.1032   -2.4463   58.5784 C.ar    1  ZINC000821177065   -0.1500
     20 C20       -10.2916   -1.5676   59.2799 C.ar    1  ZINC000821177065   -0.0700
     21 C21        -9.0697   -2.0271   59.7463 C.ar    1  ZINC000821177065   -0.1700
     22 C22        -8.7036   -3.3367   59.4983 C.ar    1  ZINC000821177065    0.1000
     23 N23        -9.5031   -4.1460   58.8318 N.ar    1  ZINC000821177065   -0.4700
     24 C24       -12.7877   -4.4600   55.4441 C.2     1  ZINC000821177065    0.0700
     25 C25       -12.5698   -3.8440   54.2600 C.2     1  ZINC000821177065   -0.2600
     26 H26        -9.7015   -0.8639   51.6338 H       1  ZINC000821177065    0.4000
     27 H27       -10.3411    1.4871   51.5535 H       1  ZINC000821177065    0.0700
     28 H28       -10.6787    1.3882   53.2984 H       1  ZINC000821177065    0.0800
     29 H29        -7.1049    0.7967   54.0012 H       1  ZINC000821177065    0.3800
     30 H30        -8.2441    2.1912   50.7154 H       1  ZINC000821177065    0.1100
     31 H31        -5.7123    2.1673   50.8742 H       1  ZINC000821177065    0.0900
     32 H32        -5.8260    1.4855   52.5841 H       1  ZINC000821177065    0.1100
     33 H33        -7.0603   -0.5435   51.6929 H       1  ZINC000821177065    0.1000
     34 H34        -6.9465    0.1383   49.9831 H       1  ZINC000821177065    0.0900
     35 H35        -7.6383    3.3628   53.5344 H       1  ZINC000821177065    0.1100
     36 H36        -9.7154    4.7920   53.2537 H       1  ZINC000821177065    0.1000
     37 H37       -10.6660    3.3052   52.7177 H       1  ZINC000821177065    0.1100
     38 H38       -10.1830    2.1932   54.9458 H       1  ZINC000821177065    0.0900
     39 H39        -9.2324    3.6800   55.4818 H       1  ZINC000821177065    0.1000
     40 H40       -10.3350   -2.9237   52.5310 H       1  ZINC000821177065    0.4100
     41 H41       -12.5165   -4.7762   58.0955 H       1  ZINC000821177065    0.1000
     42 H42       -11.0731   -5.6883   57.5927 H       1  ZINC000821177065    0.1200
     43 H43       -12.0615   -2.1222   58.2002 H       1  ZINC000821177065    0.1400
     44 H44       -10.6040   -0.5492   59.4584 H       1  ZINC000821177065    0.1400
     45 H45        -8.4121   -1.3702   60.2962 H       1  ZINC000821177065    0.1400
     46 H46        -7.7531   -3.7024   59.8579 H       1  ZINC000821177065    0.1600
     47 H47       -13.6632   -5.0333   55.7110 H       1  ZINC000821177065    0.1800
     48 H48       -13.2386   -3.8414   53.4120 H       1  ZINC000821177065    0.1700
@<TRIPOS>BOND
     1     1     2    2
     2     2     3   am
     3     2    13   am
     4     3     4    1
     5     3    26    1
     6     4     5    1
     7     4    27    1
     8     4    28    1
     9     5     6    1
    10     5     7    1
    11     5    10    1
    12     6    29    1
    13     7     9    1
    14     7     8    1
    15     7    30    1
    16     8     9    1
    17     8    31    1
    18     8    32    1
    19     9    33    1
    20     9    34    1
    21    10    12    1
    22    10    11    1
    23    10    35    1
    24    11    12    1
    25    11    36    1
    26    11    37    1
    27    12    38    1
    28    12    39    1
    29    13    14    1
    30    13    40    1
    31    14    25    1
    32    14    15    2
    33    15    16    1
    34    16    17    1
    35    16    24    1
    36    17    18    1
    37    17    41    1
    38    17    42    1
    39    18    23   ar
    40    18    19   ar
    41    19    20   ar
    42    19    43    1
    43    20    21   ar
    44    20    44    1
    45    21    22   ar
    46    21    45    1
    47    22    23   ar
    48    22    46    1
    49    24    25    2
    50    24    47    1
    51    25    48    1
@<TRIPOS>SUBSTRUCTURE
     1 ZINC000821177065        1 TEMP              0 ****  ****    0 ROOT


##########                                Name:    ZINC000028372981
##########                DOCK_Rotatable_Bonds:                   7
##########                         Heavy_Atoms:                  28
##########                    Molecular_Weight:             380.443
##########                DOCK_Rotatable_Bonds:                   7
##########                       Formal_Charge:         1.78814e-07
##########                     HBond_Acceptors:                   6
##########                        HBond_Donors:                   1
##########                         Heavy_Atoms:                  28
##########                          Grid_Score:          -33.718418
##########                     Grid_vdw_energy:          -31.887175
##########                      Grid_es_energy:           -1.831244
##########           Internal_energy_repulsive:           14.064001

@<TRIPOS>MOLECULE
ZINC000028372981
 52 54 1 0 0
SMALL
USER_CHARGES


@<TRIPOS>ATOM
      1 C1        -10.8024    1.4796   62.6713 C.3     1  ZINC000028372981   -0.1800
      2 C2        -11.6052    0.5747   61.7726 C.2     1  ZINC000028372981    0.5200
      3 O3        -12.7872    0.7846   61.6003 O.2     1  ZINC000028372981   -0.5100
      4 N4        -11.0097   -0.4680   61.1606 N.am    1  ZINC000028372981   -0.5500
      5 C5         -9.5934   -0.8194   61.2908 C.3     1  ZINC000028372981    0.1000
      6 C6         -9.4045   -2.0672   60.4128 C.3     1  ZINC000028372981   -0.0900
      7 C7        -10.7762   -2.3343   59.8341 C.ar    1  ZINC000028372981   -0.1500
      8 C8        -11.2178   -3.3217   58.9822 C.ar    1  ZINC000028372981    0.0000
      9 C9        -12.5566   -3.3525   58.5813 C.ar    1  ZINC000028372981   -0.1600
     10 C10       -13.0337   -4.4047   57.6650 C.2     1  ZINC000028372981    0.5200
     11 O11       -13.9372   -5.1426   58.0052 O.2     1  ZINC000028372981   -0.5000
     12 O12       -12.4679   -4.5480   56.4506 O.3     1  ZINC000028372981   -0.3200
     13 C13       -12.8603   -3.5988   55.4243 C.3     1  ZINC000028372981    0.0700
     14 H14       -13.4950   -2.8296   55.8644 H       1  ZINC000028372981    0.1200
     15 C15       -13.6324   -4.3283   54.3231 C.3     1  ZINC000028372981   -0.1700
     16 C16       -11.6298   -2.9584   54.8353 C.2     1  ZINC000028372981    0.5200
     17 O17       -10.5284   -3.3464   55.1629 O.2     1  ZINC000028372981   -0.4900
     18 N18       -11.7533   -1.9546   53.9445 N.am    1  ZINC000028372981   -0.6600
     19 C19       -10.6108   -1.3600   53.3976 C.ar    1  ZINC000028372981    0.1500
     20 C20        -9.8641   -2.0364   52.4420 C.ar    1  ZINC000028372981   -0.1300
     21 C21        -8.7370   -1.4465   51.9038 C.ar    1  ZINC000028372981   -0.1000
     22 C22        -8.3525   -0.1837   52.3151 C.ar    1  ZINC000028372981   -0.1300
     23 C23        -9.0943    0.4928   53.2663 C.ar    1  ZINC000028372981   -0.0700
     24 C24        -8.6718    1.8692   53.7113 C.3     1  ZINC000028372981   -0.1200
     25 C25       -10.2216   -0.0917   53.8090 C.ar    1  ZINC000028372981   -0.1200
     26 C26       -11.0288    0.6456   54.8461 C.3     1  ZINC000028372981   -0.1200
     27 C27       -13.4411   -2.3817   59.0602 C.ar    1  ZINC000028372981   -0.0200
     28 C28       -12.9930   -1.4032   59.9141 C.ar    1  ZINC000028372981   -0.1800
     29 C29       -11.6521   -1.3678   60.3121 C.ar    1  ZINC000028372981    0.1900
     30 H30        -9.9948    1.9364   62.0992 H       1  ZINC000028372981    0.1000
     31 H31       -11.4493    2.2596   63.0731 H       1  ZINC000028372981    0.1000
     32 H32       -10.3825    0.8975   63.4916 H       1  ZINC000028372981    0.1000
     33 H33        -8.9669   -0.0041   60.9288 H       1  ZINC000028372981    0.0900
     34 H34        -9.3546   -1.0481   62.3294 H       1  ZINC000028372981    0.0900
     35 H35        -8.6879   -1.8671   59.6163 H       1  ZINC000028372981    0.1000
     36 H36        -9.0739   -2.9115   61.0178 H       1  ZINC000028372981    0.1000
     37 H37       -10.5287   -4.0703   58.6202 H       1  ZINC000028372981    0.1400
     38 H38       -12.9978   -5.0976   53.8830 H       1  ZINC000028372981    0.0800
     39 H39       -14.5224   -4.7916   54.7492 H       1  ZINC000028372981    0.0800
     40 H40       -13.9270   -3.6158   53.5527 H       1  ZINC000028372981    0.0800
     41 H41       -12.6342   -1.6443   53.6825 H       1  ZINC000028372981    0.4100
     42 H42       -10.1668   -3.0208   52.1168 H       1  ZINC000028372981    0.1400
     43 H43        -8.1559   -1.9720   51.1605 H       1  ZINC000028372981    0.1300
     44 H44        -7.4711    0.2756   51.8924 H       1  ZINC000028372981    0.1200
     45 H45        -9.1437    2.6177   53.0748 H       1  ZINC000028372981    0.0700
     46 H46        -8.9779    2.0265   54.7455 H       1  ZINC000028372981    0.0700
     47 H47        -7.5881    1.9589   53.6356 H       1  ZINC000028372981    0.0700
     48 H48       -11.7975    1.2404   54.3528 H       1  ZINC000028372981    0.0700
     49 H49       -11.4999   -0.0721   55.5177 H       1  ZINC000028372981    0.0600
     50 H50       -10.3728    1.3019   55.4179 H       1  ZINC000028372981    0.0800
     51 H51       -14.4779   -2.4011   58.7587 H       1  ZINC000028372981    0.1500
     52 H52       -13.6808   -0.6555   60.2806 H       1  ZINC000028372981    0.1500
@<TRIPOS>BOND
     1     1     2    1
     2     1    30    1
     3     1    31    1
     4     1    32    1
     5     2     3    2
     6     2     4   am
     7     4    29    1
     8     4     5    1
     9     5     6    1
    10     5    33    1
    11     5    34    1
    12     6     7    1
    13     6    35    1
    14     6    36    1
    15     7    29   ar
    16     7     8   ar
    17     8     9   ar
    18     8    37    1
    19     9    10    1
    20     9    27   ar
    21    10    11    2
    22    10    12    1
    23    12    13    1
    24    13    14    1
    25    13    15    1
    26    13    16    1
    27    15    38    1
    28    15    39    1
    29    15    40    1
    30    16    17    2
    31    16    18   am
    32    18    19    1
    33    18    41    1
    34    19    25   ar
    35    19    20   ar
    36    20    21   ar
    37    20    42    1
    38    21    22   ar
    39    21    43    1
    40    22    23   ar
    41    22    44    1
    42    23    24    1
    43    23    25   ar
    44    24    45    1
    45    24    46    1
    46    24    47    1
    47    25    26    1
    48    26    48    1
    49    26    49    1
    50    26    50    1
    51    27    28   ar
    52    27    51    1
    53    28    29   ar
    54    28    52    1
@<TRIPOS>SUBSTRUCTURE
     1 ZINC000028372981        1 TEMP              0 ****  ****    0 ROOT


##########                                Name:    ZINC000951315041
##########                DOCK_Rotatable_Bonds:                   5
##########                         Heavy_Atoms:                  25
##########                    Molecular_Weight:             340.382
##########                DOCK_Rotatable_Bonds:                   5
##########                       Formal_Charge:          0.00999974
##########                     HBond_Acceptors:                   7
##########                        HBond_Donors:                   1
##########                         Heavy_Atoms:                  25
##########                          Grid_Score:          -33.713219
##########                     Grid_vdw_energy:          -34.249905
##########                      Grid_es_energy:            0.536686
##########           Internal_energy_repulsive:           10.017591

@<TRIPOS>MOLECULE
ZINC000951315041
 45 47 1 0 0
SMALL
USER_CHARGES


@<TRIPOS>ATOM
      1 C1        -10.7929   -1.4285   60.8755 C.3     1  ZINC000951315041    0.0500
      2 N2        -10.7561   -2.4890   59.8655 N.am    1  ZINC000951315041   -0.4900
      3 C3        -11.8123   -2.6635   59.0495 C.2     1  ZINC000951315041    0.1700
      4 C4        -11.7995   -3.6565   58.0914 C.2     1  ZINC000951315041   -0.2400
      5 C5        -12.9590   -3.8436   57.1998 C.2     1  ZINC000951315041    0.5800
      6 O6        -13.8284   -4.6419   57.4924 O.2     1  ZINC000951315041   -0.5200
      7 N7        -13.0552   -3.1300   56.0606 N.am    1  ZINC000951315041   -0.6000
      8 C8        -14.2044   -3.3054   55.1621 C.3     1  ZINC000951315041    0.1100
      9 C9        -13.6866   -3.6112   53.7532 C.3     1  ZINC000951315041   -0.1300
     10 C10       -12.7136   -2.5113   53.3218 C.3     1  ZINC000951315041   -0.1300
     11 C11       -11.5198   -2.4800   54.2789 C.3     1  ZINC000951315041    0.1300
     12 H12       -11.0255   -3.4514   54.2760 H       1  ZINC000951315041    0.1000
     13 N13       -10.5736   -1.4486   53.8464 N.am    1  ZINC000951315041   -0.7200
     14 C14        -9.7136   -1.7023   52.8402 C.2     1  ZINC000951315041    0.5700
     15 O15        -9.7222   -2.7874   52.2925 O.2     1  ZINC000951315041   -0.5200
     16 C16        -8.7598   -0.6609   52.4025 C.ar    1  ZINC000951315041   -0.1900
     17 C17        -8.7595    0.6026   53.0052 C.ar    1  ZINC000951315041   -0.0100
     18 C18        -7.8462    1.5418   52.5592 C.ar    1  ZINC000951315041   -0.1800
     19 C19        -6.9714    1.2056   51.5421 C.ar    1  ZINC000951315041    0.1300
     20 N20        -6.9947    0.0064   50.9921 N.ar    1  ZINC000951315041   -0.4900
     21 C21        -7.8406   -0.9227   51.3856 C.ar    1  ZINC000951315041    0.1400
     22 C22       -12.0159   -2.1573   55.6966 C.3     1  ZINC000951315041    0.1000
     23 C23       -10.6642   -4.4940   57.9707 C.2     1  ZINC000951315041    0.0100
     24 C24        -9.6090   -4.2987   58.8058 C.2     1  ZINC000951315041   -0.2300
     25 C25        -9.6651   -3.2698   59.7647 C.2     1  ZINC000951315041    0.5100
     26 O26        -8.7210   -3.0903   60.5157 O.2     1  ZINC000951315041   -0.5400
     27 H27        -9.8591   -1.4299   61.4379 H       1  ZINC000951315041    0.1100
     28 H28       -10.9197   -0.4635   60.3845 H       1  ZINC000951315041    0.0800
     29 H29       -11.6267   -1.6028   61.5552 H       1  ZINC000951315041    0.0800
     30 H30       -12.6757   -2.0220   59.1456 H       1  ZINC000951315041    0.1700
     31 H31       -14.8195   -4.1339   55.5131 H       1  ZINC000951315041    0.1000
     32 H32       -14.7965   -2.3904   55.1433 H       1  ZINC000951315041    0.0700
     33 H33       -13.1719   -4.5719   53.7552 H       1  ZINC000951315041    0.0700
     34 H34       -14.5250   -3.6485   53.0576 H       1  ZINC000951315041    0.0900
     35 H35       -12.3626   -2.7136   52.3099 H       1  ZINC000951315041    0.0800
     36 H36       -13.2222   -1.5475   53.3437 H       1  ZINC000951315041    0.0700
     37 H37       -10.5659   -0.5831   54.2843 H       1  ZINC000951315041    0.4000
     38 H38        -9.4545    0.8384   53.7977 H       1  ZINC000951315041    0.1500
     39 H39        -7.8173    2.5272   53.0005 H       1  ZINC000951315041    0.1500
     40 H40        -6.2577    1.9367   51.1921 H       1  ZINC000951315041    0.1600
     41 H41        -7.8291   -1.8929   50.9110 H       1  ZINC000951315041    0.1600
     42 H42       -12.4282   -1.1485   55.7188 H       1  ZINC000951315041    0.0700
     43 H43       -11.1862   -2.2306   56.3996 H       1  ZINC000951315041    0.0900
     44 H44       -10.6369   -5.2765   57.2268 H       1  ZINC000951315041    0.1400
     45 H45        -8.7330   -4.9262   58.7316 H       1  ZINC000951315041    0.1600
@<TRIPOS>BOND
     1     1     2    1
     2     1    27    1
     3     1    28    1
     4     1    29    1
     5     2    25   am
     6     2     3    1
     7     3     4    2
     8     3    30    1
     9     4     5    1
    10     4    23    1
    11     5     6    2
    12     5     7   am
    13     7    22    1
    14     7     8    1
    15     8     9    1
    16     8    31    1
    17     8    32    1
    18     9    10    1
    19     9    33    1
    20     9    34    1
    21    10    11    1
    22    10    35    1
    23    10    36    1
    24    11    12    1
    25    11    13    1
    26    11    22    1
    27    13    14   am
    28    13    37    1
    29    14    15    2
    30    14    16    1
    31    16    21   ar
    32    16    17   ar
    33    17    18   ar
    34    17    38    1
    35    18    19   ar
    36    18    39    1
    37    19    20   ar
    38    19    40    1
    39    20    21   ar
    40    21    41    1
    41    22    42    1
    42    22    43    1
    43    23    24    2
    44    23    44    1
    45    24    25    1
    46    24    45    1
    47    25    26    2
@<TRIPOS>SUBSTRUCTURE
     1 ZINC000951315041        1 TEMP              0 ****  ****    0 ROOT


##########                                Name:    ZINC000898967786
##########                DOCK_Rotatable_Bonds:                   5
##########                         Heavy_Atoms:                  25
##########                    Molecular_Weight:             356.448
##########                DOCK_Rotatable_Bonds:                   5
##########                       Formal_Charge:        -2.38419e-07
##########                     HBond_Acceptors:                   7
##########                        HBond_Donors:                   1
##########                         Heavy_Atoms:                  25
##########                          Grid_Score:          -33.711090
##########                     Grid_vdw_energy:          -30.954145
##########                      Grid_es_energy:           -2.756944
##########           Internal_energy_repulsive:           10.256465

@<TRIPOS>MOLECULE
ZINC000898967786
 45 48 1 0 0
SMALL
USER_CHARGES


@<TRIPOS>ATOM
      1 C1         -8.9600   -3.0245   60.3177 C.3     1  ZINC000898967786   -0.0800
      2 C2         -9.0847   -1.8873   61.2987 C.2     1  ZINC000898967786    0.0900
      3 C3         -9.7415   -0.7269   61.0807 C.2     1  ZINC000898967786   -0.1000
      4 C4        -10.4758   -0.3372   59.8238 C.3     1  ZINC000898967786    0.2200
      5 N5         -9.7271    0.7108   59.1258 N.am    1  ZINC000898967786   -0.7400
      6 C6         -9.2922    0.5037   57.8669 C.2     1  ZINC000898967786    0.7100
      7 O7         -9.5213   -0.5528   57.3107 O.2     1  ZINC000898967786   -0.5800
      8 N8         -8.6034    1.4679   57.2248 N.am    1  ZINC000898967786   -0.6300
      9 C9         -8.3141    2.7546   57.8775 C.3     1  ZINC000898967786    0.0900
     10 C10        -8.7378    3.8832   56.9306 C.3     1  ZINC000898967786    0.0500
     11 O11        -8.1394    3.6724   55.6495 O.3     1  ZINC000898967786   -0.3700
     12 C12        -8.5514    2.4661   55.0024 C.3     1  ZINC000898967786    0.1400
     13 H13        -9.6360    2.4631   54.8944 H       1  ZINC000898967786    0.0700
     14 C14        -7.9097    2.3803   53.6416 C.2     1  ZINC000898967786   -0.1100
     15 C15        -8.5191    1.8211   52.5950 C.2     1  ZINC000898967786   -0.1800
     16 S16        -7.4686    1.9050   51.1868 S.3     1  ZINC000898967786    0.1100
     17 C17        -6.2242    2.7190   52.1263 C.2     1  ZINC000898967786   -0.2100
     18 C18        -6.6457    2.8811   53.3815 C.2     1  ZINC000898967786   -0.1300
     19 C19        -8.1132    1.2628   55.8526 C.3     1  ZINC000898967786    0.0900
     20 N20        -9.6154    0.0281   62.2149 N.pl3   1  ZINC000898967786   -0.3500
     21 C21       -10.0701    1.2698   62.5528 C.2     1  ZINC000898967786    0.0600
     22 C22        -9.7979    1.7947   63.7659 C.2     1  ZINC000898967786   -0.1400
     23 C23        -9.0404    1.0675   64.6990 C.2     1  ZINC000898967786   -0.1000
     24 C24        -8.5811   -0.1712   64.3751 C.2     1  ZINC000898967786   -0.0800
     25 C25        -8.8742   -0.7057   63.1044 C.2     1  ZINC000898967786    0.2400
     26 N26        -8.5696   -1.8609   62.5301 N.2     1  ZINC000898967786   -0.4900
     27 H27        -9.7941   -3.7133   60.4521 H       1  ZINC000898967786    0.0800
     28 H28        -8.9739   -2.6309   59.3014 H       1  ZINC000898967786    0.0700
     29 H29        -8.0219   -3.5519   60.4903 H       1  ZINC000898967786    0.0800
     30 H30       -10.5731   -1.2077   59.1750 H       1  ZINC000898967786    0.1000
     31 H31       -11.4669    0.0354   60.0827 H       1  ZINC000898967786    0.0700
     32 H32        -9.5443    1.5537   59.5696 H       1  ZINC000898967786    0.4000
     33 H33        -8.8743    2.8276   58.8096 H       1  ZINC000898967786    0.1100
     34 H34        -7.2463    2.8298   58.0836 H       1  ZINC000898967786    0.0800
     35 H35        -9.8231    3.8854   56.8295 H       1  ZINC000898967786    0.0600
     36 H36        -8.4071    4.8404   57.3339 H       1  ZINC000898967786    0.1100
     37 H37        -9.5062    1.3833   52.6101 H       1  ZINC000898967786    0.1700
     38 H38        -5.2673    3.0423   51.7443 H       1  ZINC000898967786    0.1700
     39 H39        -6.0432    3.3595   54.1393 H       1  ZINC000898967786    0.1400
     40 H40        -7.0257    1.1899   55.8525 H       1  ZINC000898967786    0.0800
     41 H41        -8.5430    0.3484   55.4437 H       1  ZINC000898967786    0.0900
     42 H42       -10.6528    1.8376   61.8426 H       1  ZINC000898967786    0.1600
     43 H43       -10.1639    2.7784   64.0204 H       1  ZINC000898967786    0.1500
     44 H44        -8.8234    1.4902   65.6688 H       1  ZINC000898967786    0.1500
     45 H45        -7.9975   -0.7392   65.0845 H       1  ZINC000898967786    0.1500
@<TRIPOS>BOND
     1     1     2    1
     2     1    27    1
     3     1    28    1
     4     1    29    1
     5     2    26    1
     6     2     3    2
     7     3     4    1
     8     3    20    1
     9     4     5    1
    10     4    30    1
    11     4    31    1
    12     5     6   am
    13     5    32    1
    14     6     7    2
    15     6     8   am
    16     8    19    1
    17     8     9    1
    18     9    10    1
    19     9    33    1
    20     9    34    1
    21    10    11    1
    22    10    35    1
    23    10    36    1
    24    11    12    1
    25    12    13    1
    26    12    14    1
    27    12    19    1
    28    14    18    1
    29    14    15    2
    30    15    16    1
    31    15    37    1
    32    16    17    1
    33    17    18    2
    34    17    38    1
    35    18    39    1
    36    19    40    1
    37    19    41    1
    38    20    25    1
    39    20    21    1
    40    21    22    2
    41    21    42    1
    42    22    23    1
    43    22    43    1
    44    23    24    2
    45    23    44    1
    46    24    25    1
    47    24    45    1
    48    25    26    2
@<TRIPOS>SUBSTRUCTURE
     1 ZINC000898967786        1 TEMP              0 ****  ****    0 ROOT


##########                                Name:    ZINC000065993627
##########                DOCK_Rotatable_Bonds:                   7
##########                         Heavy_Atoms:                  28
##########                    Molecular_Weight:             382.462
##########                DOCK_Rotatable_Bonds:                   7
##########                       Formal_Charge:          -0.0200002
##########                     HBond_Acceptors:                   7
##########                        HBond_Donors:                   2
##########                         Heavy_Atoms:                  28
##########                          Grid_Score:          -33.694839
##########                     Grid_vdw_energy:          -33.199375
##########                      Grid_es_energy:           -0.495464
##########           Internal_energy_repulsive:           40.764771

@<TRIPOS>MOLECULE
ZINC000065993627
 54 56 1 0 0
SMALL
USER_CHARGES


@<TRIPOS>ATOM
      1 C1        -10.4186    1.3757   59.8461 C.3     1  ZINC000065993627   -0.1200
      2 C2         -9.8661    0.5863   61.0047 C.ar    1  ZINC000065993627   -0.0700
      3 C3         -9.8272    1.1469   62.2657 C.ar    1  ZINC000065993627   -0.1800
      4 C4         -9.3179    0.4193   63.3338 C.ar    1  ZINC000065993627    0.2000
      5 N5         -9.2788    0.9871   64.6119 N.pl3   1  ZINC000065993627   -0.6400
      6 C6         -8.0392    0.9506   65.3920 C.3     1  ZINC000065993627    0.1000
      7 C7        -10.4772    1.6183   65.1701 C.3     1  ZINC000065993627    0.0900
      8 C8         -8.8480   -0.8718   63.1328 C.ar    1  ZINC000065993627   -0.1800
      9 C9         -8.8871   -1.4321   61.8712 C.ar    1  ZINC000065993627   -0.0800
     10 C10        -9.4014   -0.7068   60.8052 C.ar    1  ZINC000065993627    0.1100
     11 N11        -9.4413   -1.2761   59.5245 N.am    1  ZINC000065993627   -0.6800
     12 C12       -10.4116   -2.1565   59.2084 C.2     1  ZINC000065993627    0.7000
     13 O13       -11.2523   -2.4572   60.0338 O.2     1  ZINC000065993627   -0.5700
     14 N14       -10.4500   -2.7037   57.9774 N.am    1  ZINC000065993627   -0.7400
     15 C15       -11.5057   -3.6594   57.6332 C.3     1  ZINC000065993627    0.2100
     16 H16       -12.2972   -3.6114   58.3810 H       1  ZINC000065993627    0.1000
     17 C17       -10.9221   -5.0733   57.5982 C.3     1  ZINC000065993627   -0.1600
     18 C18       -12.0721   -3.3162   56.2795 C.ar    1  ZINC000065993627   -0.1200
     19 C19       -11.4077   -2.4223   55.4600 C.ar    1  ZINC000065993627   -0.0800
     20 C20       -11.9243   -2.1055   54.2188 C.ar    1  ZINC000065993627   -0.1500
     21 C21       -13.1121   -2.6860   53.7942 C.ar    1  ZINC000065993627    0.1800
     22 N22       -13.6380   -2.3677   52.5369 N.am    1  ZINC000065993627   -0.5700
     23 C23       -13.0333   -1.4430   51.5659 C.3     1  ZINC000065993627    0.0600
     24 C24       -14.0136   -1.4663   50.3773 C.3     1  ZINC000065993627    0.0400
     25 O25       -15.0570   -2.3918   50.7987 O.3     1  ZINC000065993627   -0.3200
     26 C26       -14.7718   -2.8598   52.0191 C.2     1  ZINC000065993627    0.6400
     27 O27       -15.4806   -3.6519   52.6078 O.2     1  ZINC000065993627   -0.5000
     28 C28       -13.7770   -3.5834   54.6194 C.ar    1  ZINC000065993627   -0.1500
     29 C29       -13.2522   -3.9002   55.8572 C.ar    1  ZINC000065993627   -0.0800
     30 H30       -11.4909    1.1980   59.7638 H       1  ZINC000065993627    0.0700
     31 H31       -10.2378    2.4378   60.0109 H       1  ZINC000065993627    0.0700
     32 H32        -9.9267    1.0620   58.9253 H       1  ZINC000065993627    0.0600
     33 H33       -10.1923    2.1512   62.4218 H       1  ZINC000065993627    0.1200
     34 H34        -7.4484    1.8410   65.1771 H       1  ZINC000065993627    0.0500
     35 H35        -8.2795    0.9218   66.4548 H       1  ZINC000065993627    0.0700
     36 H36        -7.4676    0.0619   65.1245 H       1  ZINC000065993627    0.0700
     37 H37       -11.3159    1.4709   64.4896 H       1  ZINC000065993627    0.0800
     38 H38       -10.7089    1.1680   66.1352 H       1  ZINC000065993627    0.0500
     39 H39       -10.2985    2.6856   65.3007 H       1  ZINC000065993627    0.0500
     40 H40        -8.4517   -1.4376   63.9630 H       1  ZINC000065993627    0.1300
     41 H41        -8.5216   -2.4364   61.7148 H       1  ZINC000065993627    0.1500
     42 H42        -8.7707   -1.0362   58.8660 H       1  ZINC000065993627    0.4000
     43 H43        -9.7787   -2.4649   57.3192 H       1  ZINC000065993627    0.4000
     44 H44       -10.5124   -5.3215   58.5773 H       1  ZINC000065993627    0.0700
     45 H45       -11.7075   -5.7843   57.3421 H       1  ZINC000065993627    0.0700
     46 H46       -10.1305   -5.1213   56.8503 H       1  ZINC000065993627    0.0600
     47 H47       -10.4840   -1.9708   55.7910 H       1  ZINC000065993627    0.1300
     48 H48       -11.4051   -1.4071   53.5794 H       1  ZINC000065993627    0.1600
     49 H49       -12.9636   -0.4392   51.9850 H       1  ZINC000065993627    0.1000
     50 H50       -12.0503   -1.7997   51.2585 H       1  ZINC000065993627    0.1000
     51 H51       -14.4298   -0.4736   50.2057 H       1  ZINC000065993627    0.1100
     52 H52       -13.5167   -1.8337   49.4793 H       1  ZINC000065993627    0.1100
     53 H53       -14.7012   -4.0362   54.2921 H       1  ZINC000065993627    0.1300
     54 H54       -13.7687   -4.5982   56.4993 H       1  ZINC000065993627    0.1300
@<TRIPOS>BOND
     1     1     2    1
     2     1    30    1
     3     1    31    1
     4     1    32    1
     5     2    10   ar
     6     2     3   ar
     7     3     4   ar
     8     3    33    1
     9     4     5    1
    10     4     8   ar
    11     5     6    1
    12     5     7    1
    13     6    34    1
    14     6    35    1
    15     6    36    1
    16     7    37    1
    17     7    38    1
    18     7    39    1
    19     8     9   ar
    20     8    40    1
    21     9    10   ar
    22     9    41    1
    23    10    11    1
    24    11    12   am
    25    11    42    1
    26    12    13    2
    27    12    14   am
    28    14    15    1
    29    14    43    1
    30    15    16    1
    31    15    17    1
    32    15    18    1
    33    17    44    1
    34    17    45    1
    35    17    46    1
    36    18    29   ar
    37    18    19   ar
    38    19    20   ar
    39    19    47    1
    40    20    21   ar
    41    20    48    1
    42    21    22    1
    43    21    28   ar
    44    22    26   am
    45    22    23    1
    46    23    24    1
    47    23    49    1
    48    23    50    1
    49    24    25    1
    50    24    51    1
    51    24    52    1
    52    25    26    1
    53    26    27    2
    54    28    29   ar
    55    28    53    1
    56    29    54    1
@<TRIPOS>SUBSTRUCTURE
     1 ZINC000065993627        1 TEMP              0 ****  ****    0 ROOT


##########                                Name:    ZINC000420486261
##########                DOCK_Rotatable_Bonds:                   7
##########                         Heavy_Atoms:                  26
##########                    Molecular_Weight:             353.378
##########                DOCK_Rotatable_Bonds:                   7
##########                       Formal_Charge:        -2.98023e-08
##########                     HBond_Acceptors:                   7
##########                        HBond_Donors:                   0
##########                         Heavy_Atoms:                  26
##########                          Grid_Score:          -33.662666
##########                     Grid_vdw_energy:          -33.045147
##########                      Grid_es_energy:           -0.617518
##########           Internal_energy_repulsive:            5.178071

@<TRIPOS>MOLECULE
ZINC000420486261
 45 47 1 0 0
SMALL
USER_CHARGES


@<TRIPOS>ATOM
      1 C1         -7.1472    4.8875   52.2241 C.3     1  ZINC000420486261    0.0400
      2 O2         -7.6849    3.5398   52.2788 O.3     1  ZINC000420486261   -0.3500
      3 C3         -6.9747    2.5729   51.6668 C.2     1  ZINC000420486261    0.5100
      4 O4         -5.9355    2.8479   51.1021 O.2     1  ZINC000420486261   -0.4900
      5 C5         -7.4611    1.1747   51.6826 C.ar    1  ZINC000420486261   -0.0700
      6 C6         -6.8371    0.1886   50.9113 C.ar    1  ZINC000420486261   -0.0900
      7 C7         -7.3203   -1.1077   50.9527 C.ar    1  ZINC000420486261    0.1100
      8 N8         -8.3534   -1.4230   51.7034 N.ar    1  ZINC000420486261   -0.4200
      9 C9         -8.9783   -0.5227   52.4522 C.ar    1  ZINC000420486261    0.1900
     10 C10       -10.1357   -0.9333   53.2782 C.2     1  ZINC000420486261    0.2200
     11 N11       -10.3884   -2.1470   53.7278 N.2     1  ZINC000420486261   -0.4300
     12 C12       -11.5383   -2.0411   54.4265 C.2     1  ZINC000420486261    0.2200
     13 C13       -12.2417   -3.1395   55.1327 C.ar    1  ZINC000420486261   -0.0600
     14 C14       -12.8763   -4.1446   54.4068 C.ar    1  ZINC000420486261   -0.0300
     15 C15       -13.5294   -5.1646   55.0686 C.ar    1  ZINC000420486261   -0.1600
     16 C16       -13.5565   -5.1930   56.4518 C.ar    1  ZINC000420486261   -0.0600
     17 C17       -12.9303   -4.2010   57.1819 C.ar    1  ZINC000420486261   -0.2200
     18 C18       -12.2657   -3.1738   56.5306 C.ar    1  ZINC000420486261    0.1700
     19 O19       -11.6498   -2.1984   57.2470 O.3     1  ZINC000420486261   -0.2900
     20 C20       -10.5199   -2.5851   58.0316 C.3     1  ZINC000420486261    0.0600
     21 C21       -10.1105   -1.4257   58.9423 C.3     1  ZINC000420486261   -0.0900
     22 C22        -9.1237   -1.9298   59.9973 C.3     1  ZINC000420486261   -0.1500
     23 C23        -9.4471   -0.3299   58.1057 C.3     1  ZINC000420486261   -0.1500
     24 N24       -11.9179   -0.7898   54.3661 N.2     1  ZINC000420486261   -0.3400
     25 O25       -11.1250   -0.1405   53.7176 O.3     1  ZINC000420486261    0.1000
     26 C26        -8.5522    0.8038   52.4728 C.ar    1  ZINC000420486261   -0.0700
     27 H27        -7.8147    5.5668   52.7542 H       1  ZINC000420486261    0.1100
     28 H28        -6.1632    4.9054   52.6929 H       1  ZINC000420486261    0.0700
     29 H29        -7.0599    5.2019   51.1841 H       1  ZINC000420486261    0.0700
     30 H30        -5.9885    0.4358   50.2907 H       1  ZINC000420486261    0.1600
     31 H31        -6.8417   -1.8724   50.3590 H       1  ZINC000420486261    0.1800
     32 H32       -12.8576   -4.1256   53.3271 H       1  ZINC000420486261    0.1400
     33 H33       -14.0216   -5.9432   54.5047 H       1  ZINC000420486261    0.1300
     34 H34       -14.0698   -5.9939   56.9630 H       1  ZINC000420486261    0.1300
     35 H35       -12.9548   -4.2285   58.2613 H       1  ZINC000420486261    0.1400
     36 H36       -10.7795   -3.4511   58.6404 H       1  ZINC000420486261    0.0600
     37 H37        -9.6899   -2.8399   57.3725 H       1  ZINC000420486261    0.0600
     38 H38       -10.9946   -1.0214   59.4353 H       1  ZINC000420486261    0.0800
     39 H39        -8.2397   -2.3340   59.5042 H       1  ZINC000420486261    0.0600
     40 H40        -8.8322   -1.1039   60.6461 H       1  ZINC000420486261    0.0700
     41 H41        -9.5964   -2.7105   60.5933 H       1  ZINC000420486261    0.0600
     42 H42        -8.5631   -0.7342   57.6126 H       1  ZINC000420486261    0.0500
     43 H43       -10.1501    0.0292   57.3541 H       1  ZINC000420486261    0.0600
     44 H44        -9.1555    0.4961   58.7544 H       1  ZINC000420486261    0.0600
     45 H45        -9.0618    1.5347   53.0831 H       1  ZINC000420486261    0.1600
@<TRIPOS>BOND
     1     1     2    1
     2     1    27    1
     3     1    28    1
     4     1    29    1
     5     2     3    1
     6     3     4    2
     7     3     5    1
     8     5    26   ar
     9     5     6   ar
    10     6     7   ar
    11     6    30    1
    12     7     8   ar
    13     7    31    1
    14     8     9   ar
    15     9    10    1
    16     9    26   ar
    17    10    25    1
    18    10    11    2
    19    11    12    1
    20    12    13    1
    21    12    24    2
    22    13    18   ar
    23    13    14   ar
    24    14    15   ar
    25    14    32    1
    26    15    16   ar
    27    15    33    1
    28    16    17   ar
    29    16    34    1
    30    17    18   ar
    31    17    35    1
    32    18    19    1
    33    19    20    1
    34    20    21    1
    35    20    36    1
    36    20    37    1
    37    21    22    1
    38    21    23    1
    39    21    38    1
    40    22    39    1
    41    22    40    1
    42    22    41    1
    43    23    42    1
    44    23    43    1
    45    23    44    1
    46    24    25    1
    47    26    45    1
@<TRIPOS>SUBSTRUCTURE
     1 ZINC000420486261        1 TEMP              0 ****  ****    0 ROOT


##########                                Name:    ZINC000426805817
##########                DOCK_Rotatable_Bonds:                   6
##########                         Heavy_Atoms:                  26
##########                    Molecular_Weight:             412.286
##########                DOCK_Rotatable_Bonds:                   6
##########                       Formal_Charge:          -0.0100001
##########                     HBond_Acceptors:                   5
##########                        HBond_Donors:                   4
##########                         Heavy_Atoms:                  26
##########                          Grid_Score:          -33.662598
##########                     Grid_vdw_energy:          -27.179832
##########                      Grid_es_energy:           -6.482763
##########           Internal_energy_repulsive:            4.747322

@<TRIPOS>MOLECULE
ZINC000426805817
 44 47 1 0 0
SMALL
USER_CHARGES


@<TRIPOS>ATOM
      1 O1        -13.2079    1.4689   58.8237 O.co2   1  ZINC000426805817   -0.6300
      2 C2        -12.7978    1.8578   59.9040 C.2     1  ZINC000426805817    0.5000
      3 O3        -13.3977    2.7330   60.5046 O.co2   1  ZINC000426805817   -0.6800
      4 C4        -11.5529    1.2527   60.4997 C.3     1  ZINC000426805817   -0.0500
      5 H5        -11.0948    1.9654   61.1856 H       1  ZINC000426805817    0.1300
      6 C6        -11.9196   -0.0233   61.2602 C.3     1  ZINC000426805817   -0.0500
      7 C7        -10.7249   -0.9406   61.3079 C.2     1  ZINC000426805817   -0.1900
      8 C8         -9.6822   -0.8507   62.1485 C.2     1  ZINC000426805817    0.0500
      9 N9         -8.7906   -1.8572   61.8953 N.pl3   1  ZINC000426805817   -0.5900
     10 C10        -9.2496   -2.6397   60.8587 C.ar    1  ZINC000426805817    0.1100
     11 C11        -8.7466   -3.7653   60.2154 C.ar    1  ZINC000426805817   -0.1200
     12 C12        -9.4543   -4.3408   59.1831 C.ar    1  ZINC000426805817   -0.0700
     13 C13       -10.6702   -3.8082   58.7746 C.ar    1  ZINC000426805817   -0.1100
     14 Br14      -11.6217   -4.6176   57.3549 Br      1  ZINC000426805817   -0.0400
     15 C15       -11.1870   -2.6944   59.3981 C.ar    1  ZINC000426805817   -0.0400
     16 C16       -10.4842   -2.1033   60.4498 C.ar    1  ZINC000426805817   -0.1000
     17 N17       -10.6044    0.9275   59.4261 N.4     1  ZINC000426805817   -0.4800
     18 H18        -9.9023    0.2941   59.7780 H       1  ZINC000426805817    0.4000
     19 H19       -11.0981    0.4914   58.6618 H       1  ZINC000426805817    0.4200
     20 C20        -9.9594    2.1596   58.9527 C.3     1  ZINC000426805817    0.0400
     21 C21        -9.3124    1.9060   57.6155 C.ar    1  ZINC000426805817   -0.1600
     22 C22        -8.0960    2.5043   57.3043 C.ar    1  ZINC000426805817    0.1100
     23 N23        -7.2562    3.3557   57.9867 N.pl3   1  ZINC000426805817   -0.5900
     24 C24        -6.1657    3.6512   57.2147 C.2     1  ZINC000426805817    0.0600
     25 C25        -6.2558    3.0188   56.0341 C.2     1  ZINC000426805817   -0.2000
     26 C26        -7.5062    2.2559   56.0512 C.ar    1  ZINC000426805817   -0.1100
     27 C27        -8.1430    1.4159   55.1361 C.ar    1  ZINC000426805817   -0.0400
     28 C28        -9.3378    0.8384   55.4626 C.ar    1  ZINC000426805817   -0.1500
     29 C29        -9.9211    1.0762   56.6994 C.ar    1  ZINC000426805817   -0.0700
     30 H30       -12.2218    0.2330   62.2756 H       1  ZINC000426805817    0.1200
     31 H31       -12.7429   -0.5252   60.7518 H       1  ZINC000426805817    0.0900
     32 H32        -9.5644   -0.0955   62.9115 H       1  ZINC000426805817    0.1700
     33 H33        -7.9592   -1.9987   62.3745 H       1  ZINC000426805817    0.4200
     34 H34        -7.8019   -4.1876   60.5245 H       1  ZINC000426805817    0.1300
     35 H35        -9.0595   -5.2146   58.6863 H       1  ZINC000426805817    0.1400
     36 H36       -12.1328   -2.2827   59.0781 H       1  ZINC000426805817    0.1400
     37 H37       -10.7077    2.9455   58.8511 H       1  ZINC000426805817    0.1500
     38 H38        -9.2004    2.4711   59.6703 H       1  ZINC000426805817    0.1300
     39 H39        -7.4143    3.6959   58.8813 H       1  ZINC000426805817    0.4300
     40 H40        -5.3530    4.2975   57.5114 H       1  ZINC000426805817    0.1800
     41 H41        -5.5420    3.0642   55.2249 H       1  ZINC000426805817    0.1500
     42 H42        -7.6932    1.2233   54.1732 H       1  ZINC000426805817    0.1300
     43 H43        -9.8301    0.1886   54.7542 H       1  ZINC000426805817    0.1300
     44 H44       -10.8657    0.6126   56.9429 H       1  ZINC000426805817    0.1300
@<TRIPOS>BOND
     1     1     2   ar
     2     2     3   ar
     3     2     4    1
     4     4     5    1
     5     4     6    1
     6     4    17    1
     7     6     7    1
     8     6    30    1
     9     6    31    1
    10     7    16    1
    11     7     8    2
    12     8     9    1
    13     8    32    1
    14     9    10    1
    15     9    33    1
    16    10    16   ar
    17    10    11   ar
    18    11    12   ar
    19    11    34    1
    20    12    13   ar
    21    12    35    1
    22    13    14    1
    23    13    15   ar
    24    15    16   ar
    25    15    36    1
    26    17    18    1
    27    17    19    1
    28    17    20    1
    29    20    21    1
    30    20    37    1
    31    20    38    1
    32    21    29   ar
    33    21    22   ar
    34    22    26   ar
    35    22    23    1
    36    23    24    1
    37    23    39    1
    38    24    25    2
    39    24    40    1
    40    25    26    1
    41    25    41    1
    42    26    27   ar
    43    27    28   ar
    44    27    42    1
    45    28    29   ar
    46    28    43    1
    47    29    44    1
@<TRIPOS>SUBSTRUCTURE
     1 ZINC000426805817        1 TEMP              0 ****  ****    0 ROOT


##########                                Name:    ZINC000410354665
##########                DOCK_Rotatable_Bonds:                   7
##########                         Heavy_Atoms:                  29
##########                    Molecular_Weight:             417.889
##########                DOCK_Rotatable_Bonds:                   7
##########                       Formal_Charge:        -3.72529e-08
##########                     HBond_Acceptors:                   7
##########                        HBond_Donors:                   1
##########                         Heavy_Atoms:                  29
##########                          Grid_Score:          -33.660309
##########                     Grid_vdw_energy:          -32.939846
##########                      Grid_es_energy:           -0.720462
##########           Internal_energy_repulsive:           43.313396

@<TRIPOS>MOLECULE
ZINC000410354665
 53 56 1 0 0
SMALL
USER_CHARGES


@<TRIPOS>ATOM
      1 C1        -11.0527   -0.7242   52.5412 C.3     1  ZINC000410354665    0.0200
      2 O2        -12.1040   -0.6899   51.5741 O.3     1  ZINC000410354665   -0.3000
      3 C3        -13.1824   -1.4855   51.8058 C.ar    1  ZINC000410354665    0.0900
      4 C4        -13.2275   -2.2747   52.9382 C.ar    1  ZINC000410354665   -0.1100
      5 C5        -14.3376   -3.0908   53.1735 C.ar    1  ZINC000410354665   -0.1400
      6 C6        -14.3912   -3.9360   54.3825 C.2     1  ZINC000410354665    0.5700
      7 O7        -15.3908   -4.5832   54.6280 O.2     1  ZINC000410354665   -0.5300
      8 N8        -13.3322   -3.9901   55.2143 N.am    1  ZINC000410354665   -0.7200
      9 C9        -13.3848   -4.8303   56.4133 C.3     1  ZINC000410354665    0.1700
     10 C10       -12.6389   -4.1532   57.5342 C.ar    1  ZINC000410354665   -0.1000
     11 C11       -13.2756   -3.2049   58.3126 C.ar    1  ZINC000410354665   -0.0900
     12 C12       -12.5935   -2.5798   59.3408 C.ar    1  ZINC000410354665   -0.0300
     13 Cl13      -13.3962   -1.3888   60.3161 Cl      1  ZINC000410354665   -0.0400
     14 C14       -11.2683   -2.9043   59.5937 C.ar    1  ZINC000410354665    0.0700
     15 O15       -10.6073   -2.2753   60.6040 O.3     1  ZINC000410354665   -0.2900
     16 C16        -9.3997   -2.8915   61.0645 C.3     1  ZINC000410354665    0.0200
     17 C17        -8.5637   -3.2859   59.8395 C.3     1  ZINC000410354665    0.0200
     18 O18        -9.3323   -4.1976   59.0470 O.3     1  ZINC000410354665   -0.3000
     19 C19       -10.6301   -3.8605   58.8131 C.ar    1  ZINC000410354665    0.0600
     20 C20       -11.3211   -4.4858   57.7858 C.ar    1  ZINC000410354665   -0.0900
     21 C21       -15.3961   -3.1046   52.2625 C.ar    1  ZINC000410354665   -0.0800
     22 C22       -15.3446   -2.3149   51.1340 C.ar    1  ZINC000410354665   -0.1900
     23 C23       -14.2450   -1.5000   50.9030 C.ar    1  ZINC000410354665    0.1400
     24 O24       -14.1989   -0.7238   49.7898 O.3     1  ZINC000410354665   -0.2900
     25 C25       -15.3214   -0.7873   48.9077 C.3     1  ZINC000410354665    0.0700
     26 C26       -16.5890   -0.2310   49.6025 C.3     1  ZINC000410354665   -0.1500
     27 C27       -17.4784    0.1887   48.4058 C.3     1  ZINC000410354665   -0.1200
     28 C28       -16.4830    0.7681   47.3796 C.3     1  ZINC000410354665   -0.1200
     29 C29       -15.1115    0.1475   47.6987 C.3     1  ZINC000410354665   -0.1200
     30 H30       -11.4413   -0.4153   53.5115 H       1  ZINC000410354665    0.0600
     31 H31       -10.6585   -1.7378   52.6136 H       1  ZINC000410354665    0.0600
     32 H32       -10.2561   -0.0455   52.2362 H       1  ZINC000410354665    0.1000
     33 H33       -12.4069   -2.2616   53.6401 H       1  ZINC000410354665    0.1500
     34 H34       -12.5352   -3.4728   55.0192 H       1  ZINC000410354665    0.4000
     35 H35       -14.4238   -4.9801   56.7068 H       1  ZINC000410354665    0.0800
     36 H36       -12.9243   -5.7952   56.2014 H       1  ZINC000410354665    0.0900
     37 H37       -14.3071   -2.9514   58.1173 H       1  ZINC000410354665    0.1500
     38 H38        -8.8398   -2.1878   61.6806 H       1  ZINC000410354665    0.1300
     39 H39        -9.6400   -3.7806   61.6474 H       1  ZINC000410354665    0.0800
     40 H40        -8.3285   -2.3975   59.2535 H       1  ZINC000410354665    0.0800
     41 H41        -7.6415   -3.7679   60.1637 H       1  ZINC000410354665    0.1300
     42 H42       -10.8277   -5.2308   57.1792 H       1  ZINC000410354665    0.1400
     43 H43       -16.2549   -3.7344   52.4422 H       1  ZINC000410354665    0.1300
     44 H44       -16.1637   -2.3269   50.4302 H       1  ZINC000410354665    0.1400
     45 H45       -15.4855   -1.8119   48.5738 H       1  ZINC000410354665    0.0800
     46 H46       -17.0771   -1.0059   50.1936 H       1  ZINC000410354665    0.0700
     47 H47       -16.3429    0.6313   50.2221 H       1  ZINC000410354665    0.0800
     48 H48       -17.9932   -0.6778   47.9908 H       1  ZINC000410354665    0.0700
     49 H49       -18.1963    0.9494   48.7125 H       1  ZINC000410354665    0.0700
     50 H50       -16.7891    0.4979   46.3688 H       1  ZINC000410354665    0.0700
     51 H51       -16.4341    1.8526   47.4780 H       1  ZINC000410354665    0.0700
     52 H52       -14.3971    0.9308   47.9519 H       1  ZINC000410354665    0.0800
     53 H53       -14.7520   -0.4238   46.8428 H       1  ZINC000410354665    0.0700
@<TRIPOS>BOND
     1     1     2    1
     2     1    30    1
     3     1    31    1
     4     1    32    1
     5     2     3    1
     6     3    23   ar
     7     3     4   ar
     8     4     5   ar
     9     4    33    1
    10     5     6    1
    11     5    21   ar
    12     6     7    2
    13     6     8   am
    14     8     9    1
    15     8    34    1
    16     9    10    1
    17     9    35    1
    18     9    36    1
    19    10    20   ar
    20    10    11   ar
    21    11    12   ar
    22    11    37    1
    23    12    13    1
    24    12    14   ar
    25    14    19   ar
    26    14    15    1
    27    15    16    1
    28    16    17    1
    29    16    38    1
    30    16    39    1
    31    17    18    1
    32    17    40    1
    33    17    41    1
    34    18    19    1
    35    19    20   ar
    36    20    42    1
    37    21    22   ar
    38    21    43    1
    39    22    23   ar
    40    22    44    1
    41    23    24    1
    42    24    25    1
    43    25    29    1
    44    25    26    1
    45    25    45    1
    46    26    27    1
    47    26    46    1
    48    26    47    1
    49    27    28    1
    50    27    48    1
    51    27    49    1
    52    28    29    1
    53    28    50    1
    54    28    51    1
    55    29    52    1
    56    29    53    1
@<TRIPOS>SUBSTRUCTURE
     1 ZINC000410354665        1 TEMP              0 ****  ****    0 ROOT


##########                                Name:    ZINC001141221454
##########                DOCK_Rotatable_Bonds:                   7
##########                         Heavy_Atoms:                  27
##########                    Molecular_Weight:             369.439
##########                DOCK_Rotatable_Bonds:                   7
##########                       Formal_Charge:          0.00999935
##########                     HBond_Acceptors:                   6
##########                        HBond_Donors:                   1
##########                         Heavy_Atoms:                  27
##########                          Grid_Score:          -33.646339
##########                     Grid_vdw_energy:          -32.767372
##########                      Grid_es_energy:           -0.878966
##########           Internal_energy_repulsive:           12.819683

@<TRIPOS>MOLECULE
ZINC001141221454
 51 54 1 0 0
SMALL
USER_CHARGES


@<TRIPOS>ATOM
      1 C1         -4.8210    1.0132   50.6362 C.3     1  ZINC001141221454    0.0300
      2 O2         -6.0463    0.4220   51.0736 O.3     1  ZINC001141221454   -0.3100
      3 C3         -6.9074    1.2211   51.7580 C.ar    1  ZINC001141221454    0.0900
      4 C4         -6.6623    2.5818   51.8570 C.ar    1  ZINC001141221454   -0.1800
      5 C5         -7.5394    3.3924   52.5529 C.ar    1  ZINC001141221454   -0.0900
      6 C6         -8.6607    2.8482   53.1504 C.ar    1  ZINC001141221454   -0.1200
      7 C7         -8.9087    1.4910   53.0545 C.ar    1  ZINC001141221454   -0.0800
      8 C8        -10.1320    0.9010   53.7076 C.3     1  ZINC001141221454    0.0900
      9 N9         -9.7287    0.1099   54.8778 N.3     1  ZINC001141221454   -0.5100
     10 C10        -9.6393    0.9622   56.0917 C.3     1  ZINC001141221454    0.0300
     11 C11        -9.7457   -0.0586   57.2545 C.3     1  ZINC001141221454   -0.0700
     12 C12       -10.7586   -1.0842   56.7132 C.3     1  ZINC001141221454   -0.1000
     13 C13       -12.0468   -1.3929   57.4650 C.3     1  ZINC001141221454   -0.1400
     14 C14       -10.9361   -2.4436   57.3767 C.3     1  ZINC001141221454   -0.1800
     15 H15       -11.1059   -3.3025   56.7274 H       1  ZINC001141221454    0.1300
     16 C16       -10.1380   -2.7197   58.6247 C.2     1  ZINC001141221454    0.5500
     17 O17        -9.1173   -3.3718   58.5600 O.2     1  ZINC001141221454   -0.5300
     18 N18       -10.5582   -2.2420   59.8128 N.am    1  ZINC001141221454   -0.7300
     19 C19        -9.7833   -2.5119   61.0264 C.3     1  ZINC001141221454    0.1700
     20 C20        -9.8850   -1.3332   61.9599 C.ar    1  ZINC001141221454   -0.1600
     21 C21        -8.8225   -0.9971   62.7844 C.ar    1  ZINC001141221454   -0.0600
     22 C22        -8.9607    0.0958   63.6267 C.ar    1  ZINC001141221454   -0.1700
     23 C23       -10.1444    0.8085   63.6163 C.ar    1  ZINC001141221454    0.1100
     24 N24       -11.1349    0.4598   62.8181 N.ar    1  ZINC001141221454   -0.4800
     25 C25       -11.0368   -0.5700   62.0006 C.ar    1  ZINC001141221454    0.1200
     26 C26       -10.7357   -0.9311   55.1874 C.3     1  ZINC001141221454    0.0700
     27 C27        -8.0377    0.6761   52.3547 C.ar    1  ZINC001141221454    0.0900
     28 F28        -8.2796   -0.6498   52.2607 F       1  ZINC001141221454   -0.1300
     29 H29        -4.2279    0.2691   50.1046 H       1  ZINC001141221454    0.1000
     30 H30        -5.0379    1.8483   49.9701 H       1  ZINC001141221454    0.0600
     31 H31        -4.2625    1.3733   51.5003 H       1  ZINC001141221454    0.0600
     32 H32        -5.7865    3.0084   51.3910 H       1  ZINC001141221454    0.1400
     33 H33        -7.3480    4.4525   52.6302 H       1  ZINC001141221454    0.1300
     34 H34        -9.3442    3.4840   53.6935 H       1  ZINC001141221454    0.1300
     35 H35       -10.7981    1.7037   54.0237 H       1  ZINC001141221454    0.0600
     36 H36       -10.6497    0.2584   52.9955 H       1  ZINC001141221454    0.0900
     37 H37        -8.6831    1.4843   56.1250 H       1  ZINC001141221454    0.0800
     38 H38       -10.4668    1.6710   56.1255 H       1  ZINC001141221454    0.0500
     39 H39        -8.7816   -0.5305   57.4439 H       1  ZINC001141221454    0.0900
     40 H40       -10.1260    0.4213   58.1563 H       1  ZINC001141221454    0.0700
     41 H41       -12.1993   -0.9011   58.4257 H       1  ZINC001141221454    0.1000
     42 H42       -12.9470   -1.5608   56.8738 H       1  ZINC001141221454    0.1100
     43 H43       -11.3738   -1.7195   59.8644 H       1  ZINC001141221454    0.4000
     44 H44       -10.1775   -3.4006   61.5191 H       1  ZINC001141221454    0.0800
     45 H45        -8.7389   -2.6764   60.7615 H       1  ZINC001141221454    0.0800
     46 H46        -7.9088   -1.5729   62.7714 H       1  ZINC001141221454    0.1400
     47 H47        -8.1534    0.3861   64.2828 H       1  ZINC001141221454    0.1400
     48 H48       -10.2602    1.6607   64.2695 H       1  ZINC001141221454    0.1600
     49 H49       -11.8691   -0.8254   61.3616 H       1  ZINC001141221454    0.1600
     50 H50       -11.7167   -0.6190   54.8291 H       1  ZINC001141221454    0.0500
     51 H51       -10.4514   -1.8749   54.7221 H       1  ZINC001141221454    0.0900
@<TRIPOS>BOND
     1     1     2    1
     2     1    29    1
     3     1    30    1
     4     1    31    1
     5     2     3    1
     6     3    27   ar
     7     3     4   ar
     8     4     5   ar
     9     4    32    1
    10     5     6   ar
    11     5    33    1
    12     6     7   ar
    13     6    34    1
    14     7     8    1
    15     7    27   ar
    16     8     9    1
    17     8    35    1
    18     8    36    1
    19     9    26    1
    20     9    10    1
    21    10    11    1
    22    10    37    1
    23    10    38    1
    24    11    12    1
    25    11    39    1
    26    11    40    1
    27    12    14    1
    28    12    13    1
    29    12    26    1
    30    13    14    1
    31    13    41    1
    32    13    42    1
    33    14    15    1
    34    14    16    1
    35    16    17    2
    36    16    18   am
    37    18    19    1
    38    18    43    1
    39    19    20    1
    40    19    44    1
    41    19    45    1
    42    20    25   ar
    43    20    21   ar
    44    21    22   ar
    45    21    46    1
    46    22    23   ar
    47    22    47    1
    48    23    24   ar
    49    23    48    1
    50    24    25   ar
    51    25    49    1
    52    26    50    1
    53    26    51    1
    54    27    28    1
@<TRIPOS>SUBSTRUCTURE
     1 ZINC001141221454        1 TEMP              0 ****  ****    0 ROOT


##########                                Name:    ZINC000274267583
##########                DOCK_Rotatable_Bonds:                   5
##########                         Heavy_Atoms:                  24
##########                    Molecular_Weight:             349.407
##########                DOCK_Rotatable_Bonds:                   5
##########                       Formal_Charge:           0.0300001
##########                     HBond_Acceptors:                   7
##########                        HBond_Donors:                   1
##########                         Heavy_Atoms:                  24
##########                          Grid_Score:          -33.623898
##########                     Grid_vdw_energy:          -32.568825
##########                      Grid_es_energy:           -1.055072
##########           Internal_energy_repulsive:           15.672668

@<TRIPOS>MOLECULE
ZINC000274267583
 43 45 1 0 0
SMALL
USER_CHARGES


@<TRIPOS>ATOM
      1 C1         -9.6209    2.3880   65.3849 C.3     1  ZINC000274267583    0.0200
      2 O2         -9.1506    1.0508   65.2042 O.3     1  ZINC000274267583   -0.3100
      3 C3         -9.2247    0.5352   63.9489 C.ar    1  ZINC000274267583    0.1900
      4 C4         -9.7332    1.3029   62.9113 C.ar    1  ZINC000274267583   -0.2300
      5 C5         -9.8069    0.7765   61.6361 C.ar    1  ZINC000274267583    0.0300
      6 C6         -9.3750   -0.5144   61.3937 C.ar    1  ZINC000274267583   -0.7200
      7 S7         -9.4710   -1.1829   59.7664 S.o2    1  ZINC000274267583    2.7000
      8 O8         -8.9160   -0.2051   58.8974 O.2     1  ZINC000274267583   -0.9500
      9 O9         -8.9829   -2.5148   59.8503 O.2     1  ZINC000274267583   -0.9500
     10 N10       -11.0765   -1.2970   59.3772 N.am    1  ZINC000274267583   -1.1100
     11 C11       -11.9706   -2.1243   60.1911 C.3     1  ZINC000274267583    0.2100
     12 H12       -11.3845   -2.8657   60.7340 H       1  ZINC000274267583    0.1000
     13 C13       -12.7186   -1.2364   61.1886 C.3     1  ZINC000274267583   -0.1800
     14 C14       -13.8478   -2.0628   61.8173 C.3     1  ZINC000274267583    0.0600
     15 O15       -14.7823   -2.4017   60.7919 O.3     1  ZINC000274267583   -0.3100
     16 C16       -14.2954   -2.9331   59.6392 C.ar    1  ZINC000274267583    0.1100
     17 C17       -15.1759   -3.5991   58.7932 C.ar    1  ZINC000274267583   -0.1100
     18 C18       -14.7236   -4.1489   57.6111 C.ar    1  ZINC000274267583   -0.1600
     19 C19       -13.3856   -4.0372   57.2641 C.ar    1  ZINC000274267583    0.0900
     20 O20       -12.9368   -4.5752   56.0988 O.3     1  ZINC000274267583   -0.3200
     21 C21       -13.7623   -5.5645   55.4805 C.3     1  ZINC000274267583    0.0300
     22 C22       -12.5069   -3.3758   58.1072 C.ar    1  ZINC000274267583   -0.1000
     23 C23       -12.9600   -2.8252   59.2949 C.ar    1  ZINC000274267583   -0.1400
     24 C24        -8.8674   -1.2813   62.4262 C.ar    1  ZINC000274267583    0.0200
     25 C25        -8.7867   -0.7578   63.7021 C.ar    1  ZINC000274267583   -0.1700
     26 H26        -9.0428    3.0647   64.7557 H       1  ZINC000274267583    0.0600
     27 H27       -10.6735    2.4437   65.1071 H       1  ZINC000274267583    0.0600
     28 H28        -9.5054    2.6757   66.4299 H       1  ZINC000274267583    0.1100
     29 H29       -10.0714    2.3109   63.1002 H       1  ZINC000274267583    0.1400
     30 H30       -10.2027    1.3738   60.8280 H       1  ZINC000274267583    0.1400
     31 H31       -11.4251   -0.8161   58.6102 H       1  ZINC000274267583    0.4200
     32 H32       -12.0332   -0.8994   61.9663 H       1  ZINC000274267583    0.1000
     33 H33       -13.1389   -0.3747   60.6701 H       1  ZINC000274267583    0.0900
     34 H34       -13.4369   -2.9726   62.2549 H       1  ZINC000274267583    0.0700
     35 H35       -14.3461   -1.4762   62.5890 H       1  ZINC000274267583    0.1200
     36 H36       -16.2180   -3.6865   59.0628 H       1  ZINC000274267583    0.1400
     37 H37       -15.4105   -4.6658   56.9574 H       1  ZINC000274267583    0.1400
     38 H38       -13.8923   -6.4061   56.1609 H       1  ZINC000274267583    0.0600
     39 H39       -14.7354   -5.1318   55.2479 H       1  ZINC000274267583    0.0600
     40 H40       -13.2890   -5.9098   54.5614 H       1  ZINC000274267583    0.1000
     41 H41       -11.4649   -3.2891   57.8371 H       1  ZINC000274267583    0.1300
     42 H42        -8.5303   -2.2893   62.2343 H       1  ZINC000274267583    0.1500
     43 H43        -8.3901   -1.3573   64.5081 H       1  ZINC000274267583    0.1400
@<TRIPOS>BOND
     1     1     2    1
     2     1    26    1
     3     1    27    1
     4     1    28    1
     5     2     3    1
     6     3    25   ar
     7     3     4   ar
     8     4     5   ar
     9     4    29    1
    10     5     6   ar
    11     5    30    1
    12     6     7    1
    13     6    24   ar
    14     7     8    2
    15     7     9    2
    16     7    10   am
    17    10    11    1
    18    10    31    1
    19    11    12    1
    20    11    23    1
    21    11    13    1
    22    13    14    1
    23    13    32    1
    24    13    33    1
    25    14    15    1
    26    14    34    1
    27    14    35    1
    28    15    16    1
    29    16    23   ar
    30    16    17   ar
    31    17    18   ar
    32    17    36    1
    33    18    19   ar
    34    18    37    1
    35    19    20    1
    36    19    22   ar
    37    20    21    1
    38    21    38    1
    39    21    39    1
    40    21    40    1
    41    22    23   ar
    42    22    41    1
    43    24    25   ar
    44    24    42    1
    45    25    43    1
@<TRIPOS>SUBSTRUCTURE
     1 ZINC000274267583        1 TEMP              0 ****  ****    0 ROOT


##########                                Name:    ZINC000499369364
##########                DOCK_Rotatable_Bonds:                   9
##########                         Heavy_Atoms:                  25
##########                    Molecular_Weight:             384.527
##########                DOCK_Rotatable_Bonds:                   9
##########                       Formal_Charge:        -5.88596e-07
##########                     HBond_Acceptors:                  10
##########                        HBond_Donors:                   1
##########                         Heavy_Atoms:                  25
##########                          Grid_Score:          -33.543003
##########                     Grid_vdw_energy:          -33.131603
##########                      Grid_es_energy:           -0.411400
##########           Internal_energy_repulsive:           25.963032

@<TRIPOS>MOLECULE
ZINC000499369364
 49 51 1 0 0
SMALL
USER_CHARGES


@<TRIPOS>ATOM
      1 C1         -8.7275    1.1411   55.2075 C.3     1  ZINC000499369364   -0.1500
      2 C2         -9.5450    1.8511   54.1264 C.3     1  ZINC000499369364   -0.1000
      3 C3         -8.8650    3.1709   53.7572 C.3     1  ZINC000499369364   -0.1500
      4 C4         -9.6345    0.9591   52.8866 C.3     1  ZINC000499369364    0.1500
      5 H5        -10.1482    1.4958   52.0891 H       1  ZINC000499369364    0.0900
      6 C6         -8.2247    0.5856   52.4242 C.3     1  ZINC000499369364   -0.1700
      7 N7        -10.3797   -0.2591   53.2142 N.am    1  ZINC000499369364   -0.7200
      8 C8        -11.7274   -0.2495   53.1978 C.2     1  ZINC000499369364    0.5100
      9 O9        -12.3232    0.7678   52.9132 O.2     1  ZINC000499369364   -0.5100
     10 C10       -12.4939   -1.5029   53.5330 C.3     1  ZINC000499369364    0.1200
     11 H11       -13.5300   -1.2343   53.7393 H       1  ZINC000499369364    0.1200
     12 C12       -12.4595   -2.4482   52.3106 C.3     1  ZINC000499369364   -0.0800
     13 S13       -11.0864   -3.5863   52.7720 S.3     1  ZINC000499369364   -0.2400
     14 C14       -11.4377   -3.4821   54.5759 C.3     1  ZINC000499369364    0.1400
     15 N15       -11.9178   -2.0978   54.7294 N.am    1  ZINC000499369364   -0.6000
     16 C16       -11.8329   -1.4285   55.8960 C.2     1  ZINC000499369364    0.5600
     17 O17       -12.2433   -0.2898   55.9733 O.2     1  ZINC000499369364   -0.5000
     18 C18       -11.2280   -2.0950   57.1048 C.3     1  ZINC000499369364   -0.1500
     19 S19       -10.7947   -0.8381   58.3331 S.3     1  ZINC000499369364    0.1300
     20 C20        -9.9667   -1.8431   59.5201 C.2     1  ZINC000499369364    0.2000
     21 N21        -9.5781   -3.0889   59.3545 N.2     1  ZINC000499369364   -0.3400
     22 N22        -9.0049   -3.5263   60.4172 N.2     1  ZINC000499369364   -0.0300
     23 N23        -8.9844   -2.6108   61.3244 N.2     1  ZINC000499369364   -0.0800
     24 N24        -9.6053   -1.4766   60.7725 N.pl3   1  ZINC000499369364   -0.3300
     25 C25        -9.8229   -0.1793   61.4173 C.3     1  ZINC000499369364    0.0500
     26 C26       -10.9556   -0.0804   62.4410 C.3     1  ZINC000499369364   -0.1500
     27 C27        -9.4988   -0.0683   62.9085 C.3     1  ZINC000499369364   -0.1600
     28 H28        -8.6637    1.7765   56.0908 H       1  ZINC000499369364    0.0600
     29 H29        -9.2120    0.2008   55.4705 H       1  ZINC000499369364    0.0600
     30 H30        -7.7244    0.9401   54.8312 H       1  ZINC000499369364    0.0600
     31 H31       -10.5481    2.0520   54.5028 H       1  ZINC000499369364    0.0800
     32 H32        -8.8012    3.8064   54.6405 H       1  ZINC000499369364    0.0600
     33 H33        -7.8620    2.9700   53.3809 H       1  ZINC000499369364    0.0600
     34 H34        -9.4473    3.6766   52.9870 H       1  ZINC000499369364    0.0500
     35 H35        -7.7110    0.0488   53.2218 H       1  ZINC000499369364    0.0600
     36 H36        -8.2884   -0.0500   51.5410 H       1  ZINC000499369364    0.0600
     37 H37        -7.6702    1.4918   52.1805 H       1  ZINC000499369364    0.0700
     38 H38        -9.9032   -1.0724   53.4430 H       1  ZINC000499369364    0.4000
     39 H39       -13.3996   -2.9904   52.2083 H       1  ZINC000499369364    0.1200
     40 H40       -12.2241   -1.9002   51.3983 H       1  ZINC000499369364    0.1300
     41 H41       -12.2113   -4.1950   54.8609 H       1  ZINC000499369364    0.1100
     42 H42       -10.5293   -3.6427   55.1566 H       1  ZINC000499369364    0.1200
     43 H43       -11.9487   -2.7903   57.5351 H       1  ZINC000499369364    0.1300
     44 H44       -10.3307   -2.6384   56.8090 H       1  ZINC000499369364    0.1300
     45 H45        -9.6298    0.6937   60.7939 H       1  ZINC000499369364    0.1600
     46 H46       -11.5081    0.8579   62.4913 H       1  ZINC000499369364    0.1200
     47 H47       -11.5389   -0.9805   62.6348 H       1  ZINC000499369364    0.1200
     48 H48        -9.1237   -0.9606   63.4097 H       1  ZINC000499369364    0.1100
     49 H49        -9.0928    0.8778   63.2662 H       1  ZINC000499369364    0.1200
@<TRIPOS>BOND
     1     1     2    1
     2     1    28    1
     3     1    29    1
     4     1    30    1
     5     2     3    1
     6     2     4    1
     7     2    31    1
     8     3    32    1
     9     3    33    1
    10     3    34    1
    11     4     5    1
    12     4     6    1
    13     4     7    1
    14     6    35    1
    15     6    36    1
    16     6    37    1
    17     7     8   am
    18     7    38    1
    19     8     9    2
    20     8    10    1
    21    10    11    1
    22    10    15    1
    23    10    12    1
    24    12    13    1
    25    12    39    1
    26    12    40    1
    27    13    14    1
    28    14    15    1
    29    14    41    1
    30    14    42    1
    31    15    16   am
    32    16    17    2
    33    16    18    1
    34    18    19    1
    35    18    43    1
    36    18    44    1
    37    19    20    1
    38    20    24    1
    39    20    21    2
    40    21    22    1
    41    22    23    2
    42    23    24    1
    43    24    25    1
    44    25    27    1
    45    25    26    1
    46    25    45    1
    47    26    27    1
    48    26    46    1
    49    26    47    1
    50    27    48    1
    51    27    49    1
@<TRIPOS>SUBSTRUCTURE
     1 ZINC000499369364        1 TEMP              0 ****  ****    0 ROOT


##########                                Name:    ZINC000611836474
##########                DOCK_Rotatable_Bonds:                   7
##########                         Heavy_Atoms:                  22
##########                    Molecular_Weight:             366.258
##########                DOCK_Rotatable_Bonds:                   7
##########                       Formal_Charge:          -0.0300004
##########                     HBond_Acceptors:                   5
##########                        HBond_Donors:                   1
##########                         Heavy_Atoms:                  22
##########                          Grid_Score:          -33.522469
##########                     Grid_vdw_energy:          -32.467018
##########                      Grid_es_energy:           -1.055452
##########           Internal_energy_repulsive:            8.331717

@<TRIPOS>MOLECULE
ZINC000611836474
 42 43 1 0 0
SMALL
USER_CHARGES


@<TRIPOS>ATOM
      1 C1        -11.8918   -2.2758   52.0385 C.3     1  ZINC000611836474   -0.1500
      2 C2        -11.1151   -2.8125   53.2426 C.3     1  ZINC000611836474   -0.1400
      3 C3        -11.7948   -2.3531   54.5340 C.3     1  ZINC000611836474    0.1300
      4 N4        -12.5121   -3.4798   55.1358 N.pl3   1  ZINC000611836474   -0.3900
      5 N5        -13.3269   -4.3951   54.4574 N.2     1  ZINC000611836474   -0.2900
      6 C6        -13.7927   -5.2554   55.3263 C.2     1  ZINC000611836474    0.0600
      7 C7        -13.2928   -4.9206   56.5877 C.2     1  ZINC000611836474   -0.2800
      8 C8        -12.5001   -3.8236   56.4439 C.2     1  ZINC000611836474    0.3000
      9 N9        -11.8077   -3.1680   57.4619 N.am    1  ZINC000611836474   -0.6500
     10 C10       -10.8536   -3.8197   58.1559 C.2     1  ZINC000611836474    0.5200
     11 O11       -10.5960   -4.9757   57.8941 O.2     1  ZINC000611836474   -0.4700
     12 C12       -10.1067   -3.1120   59.2569 C.3     1  ZINC000611836474    0.0700
     13 H13        -9.8029   -2.1234   58.9127 H       1  ZINC000611836474    0.1100
     14 C14        -8.8664   -3.9236   59.6354 C.3     1  ZINC000611836474   -0.1800
     15 O15       -10.9554   -2.9787   60.3988 O.3     1  ZINC000611836474   -0.2700
     16 C16       -11.0572   -1.7409   60.9509 C.ar    1  ZINC000611836474    0.1500
     17 C17        -9.9177   -1.0730   61.3736 C.ar    1  ZINC000611836474   -0.2000
     18 C18       -10.0236    0.1854   61.9347 C.ar    1  ZINC000611836474   -0.0600
     19 C19       -11.2642    0.7788   62.0756 C.ar    1  ZINC000611836474   -0.1100
     20 C20       -11.3763    2.1510   62.6884 C.3     1  ZINC000611836474   -0.1100
     21 C21       -12.4023    0.1157   61.6548 C.ar    1  ZINC000611836474   -0.0500
     22 C22       -12.3015   -1.1405   61.0876 C.ar    1  ZINC000611836474   -0.1200
     23 Br23      -13.8581   -2.0471   60.5123 Br      1  ZINC000611836474   -0.0300
     24 H24       -11.4075   -2.6031   51.1185 H       1  ZINC000611836474    0.0600
     25 H25       -12.9132   -2.6554   52.0665 H       1  ZINC000611836474    0.0600
     26 H26       -11.9079   -1.1864   52.0730 H       1  ZINC000611836474    0.0600
     27 H27       -11.0989   -3.9018   53.2081 H       1  ZINC000611836474    0.0800
     28 H28       -10.0937   -2.4329   53.2146 H       1  ZINC000611836474    0.0600
     29 H29       -11.0409   -1.9880   55.2314 H       1  ZINC000611836474    0.0800
     30 H30       -12.4994   -1.5524   54.3087 H       1  ZINC000611836474    0.1000
     31 H31       -14.4514   -6.0826   55.1063 H       1  ZINC000611836474    0.1900
     32 H32       -13.4964   -5.4416   57.5114 H       1  ZINC000611836474    0.1700
     33 H33       -12.0127   -2.2432   57.6703 H       1  ZINC000611836474    0.4100
     34 H34        -8.2189   -4.0253   58.7644 H       1  ZINC000611836474    0.0800
     35 H35        -8.3262   -3.4117   60.4318 H       1  ZINC000611836474    0.0800
     36 H36        -9.1701   -4.9122   59.9797 H       1  ZINC000611836474    0.0800
     37 H37        -8.9481   -1.5362   61.2646 H       1  ZINC000611836474    0.1400
     38 H38        -9.1363    0.7056   62.2639 H       1  ZINC000611836474    0.1300
     39 H39       -11.3063    2.9056   61.9049 H       1  ZINC000611836474    0.0700
     40 H40       -12.3353    2.2441   63.1979 H       1  ZINC000611836474    0.0700
     41 H41       -10.5682    2.2958   63.4055 H       1  ZINC000611836474    0.0700
     42 H42       -13.3704    0.5815   61.7659 H       1  ZINC000611836474    0.1400
@<TRIPOS>BOND
     1     1     2    1
     2     1    24    1
     3     1    25    1
     4     1    26    1
     5     2     3    1
     6     2    27    1
     7     2    28    1
     8     3     4    1
     9     3    29    1
    10     3    30    1
    11     4     8    1
    12     4     5    1
    13     5     6    2
    14     6     7    1
    15     6    31    1
    16     7     8    2
    17     7    32    1
    18     8     9    1
    19     9    10   am
    20     9    33    1
    21    10    11    2
    22    10    12    1
    23    12    13    1
    24    12    14    1
    25    12    15    1
    26    14    34    1
    27    14    35    1
    28    14    36    1
    29    15    16    1
    30    16    22   ar
    31    16    17   ar
    32    17    18   ar
    33    17    37    1
    34    18    19   ar
    35    18    38    1
    36    19    20    1
    37    19    21   ar
    38    20    39    1
    39    20    40    1
    40    20    41    1
    41    21    22   ar
    42    21    42    1
    43    22    23    1
@<TRIPOS>SUBSTRUCTURE
     1 ZINC000611836474        1 TEMP              0 ****  ****    0 ROOT


##########                                Name:    ZINC000537799672
##########                DOCK_Rotatable_Bonds:                   9
##########                         Heavy_Atoms:                  29
##########                    Molecular_Weight:             401.478
##########                DOCK_Rotatable_Bonds:                   9
##########                       Formal_Charge:        -4.47035e-07
##########                     HBond_Acceptors:                   6
##########                        HBond_Donors:                   1
##########                         Heavy_Atoms:                  29
##########                          Grid_Score:          -33.500290
##########                     Grid_vdw_energy:          -32.727688
##########                      Grid_es_energy:           -0.772601
##########           Internal_energy_repulsive:           15.155770

@<TRIPOS>MOLECULE
ZINC000537799672
 57 59 1 0 0
SMALL
USER_CHARGES


@<TRIPOS>ATOM
      1 C1        -10.2609    0.5518   56.5776 C.3     1  ZINC000537799672    0.0300
      2 O2        -10.1249   -0.2868   55.4286 O.3     1  ZINC000537799672   -0.3800
      3 C3        -10.7673    0.2222   54.2581 C.3     1  ZINC000537799672    0.1200
      4 H4        -11.6498    0.7930   54.5470 H       1  ZINC000537799672    0.0900
      5 C5         -9.8130    1.1172   53.5102 C.ar    1  ZINC000537799672   -0.1300
      6 C6         -8.6715    0.5860   52.9392 C.ar    1  ZINC000537799672   -0.0600
      7 C7         -7.7956    1.4057   52.2531 C.ar    1  ZINC000537799672   -0.1500
      8 C8         -8.0618    2.7596   52.1375 C.ar    1  ZINC000537799672    0.1000
      9 F9         -7.2064    3.5618   51.4667 F       1  ZINC000537799672   -0.1400
     10 C10        -9.2056    3.2905   52.7094 C.ar    1  ZINC000537799672   -0.1500
     11 C11       -10.0825    2.4680   53.3909 C.ar    1  ZINC000537799672   -0.0800
     12 C12       -11.1853   -0.9424   53.3583 C.3     1  ZINC000537799672    0.1600
     13 H13       -10.2999   -1.4951   53.0442 H       1  ZINC000537799672    0.1000
     14 C14       -11.9114   -0.3995   52.1258 C.3     1  ZINC000537799672   -0.1600
     15 N15       -12.0808   -1.8347   54.0988 N.am    1  ZINC000537799672   -0.7100
     16 C16       -11.6663   -3.0694   54.4453 C.2     1  ZINC000537799672    0.5600
     17 O17       -10.5492   -3.4422   54.1447 O.2     1  ZINC000537799672   -0.5400
     18 C18       -12.5706   -3.9705   55.1911 C.ar    1  ZINC000537799672   -0.1400
     19 C19       -13.6538   -4.5681   54.5451 C.ar    1  ZINC000537799672   -0.0800
     20 C20       -14.4935   -5.4084   55.2468 C.ar    1  ZINC000537799672   -0.1300
     21 C21       -14.2640   -5.6588   56.5878 C.ar    1  ZINC000537799672   -0.0900
     22 C22       -13.1919   -5.0693   57.2344 C.ar    1  ZINC000537799672   -0.1100
     23 C23       -12.3412   -4.2320   56.5430 C.ar    1  ZINC000537799672   -0.0300
     24 C24       -11.1739   -3.5911   57.2487 C.3     1  ZINC000537799672    0.1100
     25 O25       -11.6448   -2.8676   58.3875 O.3     1  ZINC000537799672   -0.3800
     26 C26       -10.6316   -2.1143   59.0570 C.3     1  ZINC000537799672    0.0900
     27 C27       -11.2759   -0.9507   59.8167 C.3     1  ZINC000537799672   -0.1800
     28 C28       -10.1935   -0.1970   60.5937 C.3     1  ZINC000537799672    0.0600
     29 O29        -9.5290   -1.0999   61.4798 O.3     1  ZINC000537799672   -0.3800
     30 C30        -8.8678   -2.1826   60.8217 C.3     1  ZINC000537799672    0.0600
     31 C31        -9.8971   -3.0161   60.0538 C.3     1  ZINC000537799672   -0.1500
     32 H32       -11.3179    0.7341   56.7712 H       1  ZINC000537799672    0.0500
     33 H33        -9.8127    0.0605   57.4411 H       1  ZINC000537799672    0.0900
     34 H34        -9.7559    1.5007   56.3967 H       1  ZINC000537799672    0.0400
     35 H35        -8.4641   -0.4701   53.0296 H       1  ZINC000537799672    0.1300
     36 H36        -6.9036    0.9905   51.8078 H       1  ZINC000537799672    0.1400
     37 H37        -9.4140    4.3464   52.6200 H       1  ZINC000537799672    0.1400
     38 H38       -10.9749    2.8818   53.8368 H       1  ZINC000537799672    0.1300
     39 H39       -11.2802    0.3359   51.6268 H       1  ZINC000537799672    0.0700
     40 H40       -12.1259   -1.2191   51.4400 H       1  ZINC000537799672    0.0600
     41 H41       -12.8453    0.0716   52.4324 H       1  ZINC000537799672    0.0700
     42 H42       -12.9719   -1.5368   54.3397 H       1  ZINC000537799672    0.4000
     43 H43       -13.8345   -4.3728   53.4984 H       1  ZINC000537799672    0.1300
     44 H44       -15.3322   -5.8715   54.7480 H       1  ZINC000537799672    0.1300
     45 H45       -14.9245   -6.3171   57.1325 H       1  ZINC000537799672    0.1300
     46 H46       -13.0184   -5.2685   58.2816 H       1  ZINC000537799672    0.1400
     47 H47       -10.4762   -4.3636   57.5719 H       1  ZINC000537799672    0.0800
     48 H48       -10.6684   -2.9070   56.5670 H       1  ZINC000537799672    0.0800
     49 H49        -9.9227   -1.7260   58.3256 H       1  ZINC000537799672    0.0600
     50 H50       -11.7542   -0.2738   59.1088 H       1  ZINC000537799672    0.0800
     51 H51       -12.0208   -1.3377   60.5121 H       1  ZINC000537799672    0.0800
     52 H52        -9.4709    0.2242   59.8947 H       1  ZINC000537799672    0.0500
     53 H53       -10.6525    0.6062   61.1702 H       1  ZINC000537799672    0.1000
     54 H54        -8.1279   -1.7874   60.1256 H       1  ZINC000537799672    0.0500
     55 H55        -8.3719   -2.8098   61.5623 H       1  ZINC000537799672    0.1000
     56 H56       -10.6141   -3.4447   60.7540 H       1  ZINC000537799672    0.0800
     57 H57        -9.3892   -3.8163   59.5154 H       1  ZINC000537799672    0.0800
@<TRIPOS>BOND
     1     1     2    1
     2     1    32    1
     3     1    33    1
     4     1    34    1
     5     2     3    1
     6     3     4    1
     7     3     5    1
     8     3    12    1
     9     5    11   ar
    10     5     6   ar
    11     6     7   ar
    12     6    35    1
    13     7     8   ar
    14     7    36    1
    15     8     9    1
    16     8    10   ar
    17    10    11   ar
    18    10    37    1
    19    11    38    1
    20    12    13    1
    21    12    14    1
    22    12    15    1
    23    14    39    1
    24    14    40    1
    25    14    41    1
    26    15    16   am
    27    15    42    1
    28    16    17    2
    29    16    18    1
    30    18    23   ar
    31    18    19   ar
    32    19    20   ar
    33    19    43    1
    34    20    21   ar
    35    20    44    1
    36    21    22   ar
    37    21    45    1
    38    22    23   ar
    39    22    46    1
    40    23    24    1
    41    24    25    1
    42    24    47    1
    43    24    48    1
    44    25    26    1
    45    26    31    1
    46    26    27    1
    47    26    49    1
    48    27    28    1
    49    27    50    1
    50    27    51    1
    51    28    29    1
    52    28    52    1
    53    28    53    1
    54    29    30    1
    55    30    31    1
    56    30    54    1
    57    30    55    1
    58    31    56    1
    59    31    57    1
@<TRIPOS>SUBSTRUCTURE
     1 ZINC000537799672        1 TEMP              0 ****  ****    0 ROOT


##########                                Name:    ZINC000464867530
##########                DOCK_Rotatable_Bonds:                   8
##########                         Heavy_Atoms:                  30
##########                    Molecular_Weight:              422.49
##########                DOCK_Rotatable_Bonds:                   8
##########                       Formal_Charge:         -0.00999994
##########                     HBond_Acceptors:                   7
##########                        HBond_Donors:                   0
##########                         Heavy_Atoms:                  30
##########                          Grid_Score:          -33.471878
##########                     Grid_vdw_energy:          -32.416363
##########                      Grid_es_energy:           -1.055514
##########           Internal_energy_repulsive:           66.232536

@<TRIPOS>MOLECULE
ZINC000464867530
 59 62 1 0 0
SMALL
USER_CHARGES


@<TRIPOS>ATOM
      1 C1         -3.8657    2.9190   56.0108 C.3     1  ZINC000464867530   -0.1500
      2 C2         -4.9698    3.6564   56.7713 C.3     1  ZINC000464867530   -0.1400
      3 C3         -6.2543    2.8256   56.7377 C.3     1  ZINC000464867530    0.0900
      4 N4         -7.3115    3.5317   57.4659 N.am    1  ZINC000464867530   -0.6100
      5 C5         -7.0527    4.8597   58.0276 C.3     1  ZINC000464867530    0.0700
      6 C6         -7.3468    5.9266   56.9710 C.3     1  ZINC000464867530    0.4300
      7 F7         -7.0984    7.1947   57.5071 F       1  ZINC000464867530   -0.1700
      8 F8         -6.5234    5.7210   55.8589 F       1  ZINC000464867530   -0.1800
      9 F9         -8.6875    5.8395   56.5811 F       1  ZINC000464867530   -0.1800
     10 C10        -8.5221    2.9595   57.6188 C.2     1  ZINC000464867530    0.5300
     11 O11        -9.3973    3.5441   58.2215 O.2     1  ZINC000464867530   -0.5100
     12 C12        -8.7883    1.5934   57.0409 C.3     1  ZINC000464867530   -0.1200
     13 H13        -7.8464    1.0568   56.9269 H       1  ZINC000464867530    0.1000
     14 C14        -9.4617    1.7392   55.6744 C.3     1  ZINC000464867530   -0.1200
     15 C15        -9.7027    0.3532   55.0721 C.3     1  ZINC000464867530   -0.1300
     16 C16       -10.6371   -0.4423   55.9891 C.3     1  ZINC000464867530    0.1000
     17 N17       -10.0659   -0.4635   57.3427 N.am    1  ZINC000464867530   -0.6100
     18 C18        -9.8700   -1.6309   57.9871 C.2     1  ZINC000464867530    0.5500
     19 O19       -10.1645   -2.6773   57.4493 O.2     1  ZINC000464867530   -0.5300
     20 C20        -9.2847   -1.6361   59.3758 C.3     1  ZINC000464867530   -0.1700
     21 H21        -8.4013   -1.0133   59.5162 H       1  ZINC000464867530    0.1300
     22 C22        -9.3635   -2.9418   60.1718 C.3     1  ZINC000464867530   -0.1300
     23 C23       -10.2520   -1.7603   60.5470 C.3     1  ZINC000464867530   -0.0600
     24 C24       -11.7726   -1.8037   60.3215 C.3     1  ZINC000464867530   -0.0900
     25 C25       -12.2507   -0.5416   61.0731 C.3     1  ZINC000464867530   -0.0800
     26 C26       -11.1997   -0.2879   62.1332 C.ar    1  ZINC000464867530   -0.0900
     27 C27       -11.2473    0.4947   63.2739 C.ar    1  ZINC000464867530   -0.1100
     28 C28       -10.1488    0.5784   64.1073 C.ar    1  ZINC000464867530   -0.1100
     29 C29        -8.9970   -0.1218   63.8018 C.ar    1  ZINC000464867530   -0.1200
     30 C30        -8.9469   -0.9038   62.6643 C.ar    1  ZINC000464867530   -0.1000
     31 C31       -10.0464   -0.9898   61.8273 C.ar    1  ZINC000464867530   -0.0700
     32 C32        -9.7117    0.8117   57.9807 C.3     1  ZINC000464867530    0.1300
     33 H33        -3.6852    1.9517   56.4797 H       1  ZINC000464867530    0.0600
     34 H34        -4.1746    2.7693   54.9763 H       1  ZINC000464867530    0.0600
     35 H35        -2.9506    3.5108   56.0347 H       1  ZINC000464867530    0.0600
     36 H36        -4.6609    3.8060   57.8057 H       1  ZINC000464867530    0.0700
     37 H37        -5.1503    4.6236   56.3024 H       1  ZINC000464867530    0.0700
     38 H38        -6.5632    2.6760   55.7032 H       1  ZINC000464867530    0.0900
     39 H39        -6.0738    1.8584   57.2066 H       1  ZINC000464867530    0.0900
     40 H40        -7.6950    5.0193   58.8937 H       1  ZINC000464867530    0.1300
     41 H41        -6.0083    4.9283   58.3321 H       1  ZINC000464867530    0.1200
     42 H42       -10.4149    2.2546   55.7924 H       1  ZINC000464867530    0.0800
     43 H43        -8.8168    2.3161   55.0115 H       1  ZINC000464867530    0.0800
     44 H44       -10.1610    0.4585   54.0887 H       1  ZINC000464867530    0.0900
     45 H45        -8.7525   -0.1724   54.9767 H       1  ZINC000464867530    0.0700
     46 H46       -11.6174    0.0337   56.0136 H       1  ZINC000464867530    0.0700
     47 H47       -10.7331   -1.4623   55.6170 H       1  ZINC000464867530    0.0900
     48 H48        -9.8385   -3.7968   59.6908 H       1  ZINC000464867530    0.1100
     49 H49        -8.5322   -3.1774   60.8363 H       1  ZINC000464867530    0.1100
     50 H50       -12.0095   -1.7360   59.2597 H       1  ZINC000464867530    0.0700
     51 H51       -12.2044   -2.7034   60.7599 H       1  ZINC000464867530    0.0800
     52 H52       -12.3105    0.3054   60.3898 H       1  ZINC000464867530    0.0800
     53 H53       -13.2200   -0.7228   61.5376 H       1  ZINC000464867530    0.0800
     54 H54       -12.1469    1.0425   63.5131 H       1  ZINC000464867530    0.1200
     55 H55       -10.1899    1.1904   64.9963 H       1  ZINC000464867530    0.1300
     56 H56        -8.1369   -0.0573   64.4518 H       1  ZINC000464867530    0.1300
     57 H57        -8.0459   -1.4500   62.4266 H       1  ZINC000464867530    0.1200
     58 H58        -9.1976    0.6189   58.9223 H       1  ZINC000464867530    0.1000
     59 H59       -10.6162    1.3905   58.1677 H       1  ZINC000464867530    0.0800
@<TRIPOS>BOND
     1     1     2    1
     2     1    33    1
     3     1    34    1
     4     1    35    1
     5     2     3    1
     6     2    36    1
     7     2    37    1
     8     3     4    1
     9     3    38    1
    10     3    39    1
    11     4     5    1
    12     4    10   am
    13     5     6    1
    14     5    40    1
    15     5    41    1
    16     6     7    1
    17     6     8    1
    18     6     9    1
    19    10    11    2
    20    10    12    1
    21    12    13    1
    22    12    32    1
    23    12    14    1
    24    14    15    1
    25    14    42    1
    26    14    43    1
    27    15    16    1
    28    15    44    1
    29    15    45    1
    30    16    17    1
    31    16    46    1
    32    16    47    1
    33    17    18   am
    34    17    32    1
    35    18    19    2
    36    18    20    1
    37    20    21    1
    38    20    23    1
    39    20    22    1
    40    22    23    1
    41    22    48    1
    42    22    49    1
    43    23    31    1
    44    23    24    1
    45    24    25    1
    46    24    50    1
    47    24    51    1
    48    25    26    1
    49    25    52    1
    50    25    53    1
    51    26    31   ar
    52    26    27   ar
    53    27    28   ar
    54    27    54    1
    55    28    29   ar
    56    28    55    1
    57    29    30   ar
    58    29    56    1
    59    30    31   ar
    60    30    57    1
    61    32    58    1
    62    32    59    1
@<TRIPOS>SUBSTRUCTURE
     1 ZINC000464867530        1 TEMP              0 ****  ****    0 ROOT


##########                                Name:    ZINC000547864253
##########                DOCK_Rotatable_Bonds:                   6
##########                         Heavy_Atoms:                  30
##########                    Molecular_Weight:             422.548
##########                DOCK_Rotatable_Bonds:                   6
##########                       Formal_Charge:           0.0300002
##########                     HBond_Acceptors:                   6
##########                        HBond_Donors:                   2
##########                         Heavy_Atoms:                  30
##########                          Grid_Score:          -33.462658
##########                     Grid_vdw_energy:          -33.593128
##########                      Grid_es_energy:            0.130470
##########           Internal_energy_repulsive:           16.109962

@<TRIPOS>MOLECULE
ZINC000547864253
 56 60 1 0 0
SMALL
USER_CHARGES


@<TRIPOS>ATOM
      1 O1        -11.4161   -4.1917   56.9899 O.2     1  ZINC000547864253   -0.5300
      2 C2        -10.9652   -3.0659   56.9810 C.2     1  ZINC000547864253    0.5400
      3 N3        -11.3872   -2.1782   56.0587 N.am    1  ZINC000547864253   -0.7200
      4 C4        -12.3860   -2.5753   55.0632 C.3     1  ZINC000547864253    0.1300
      5 C5        -12.4655   -1.5101   53.9677 C.3     1  ZINC000547864253    0.0200
      6 H6        -12.7468   -0.5544   54.4100 H       1  ZINC000547864253    0.0900
      7 C7        -11.1223   -1.3775   53.2975 C.2     1  ZINC000547864253   -0.1600
      8 C8        -10.5546   -2.2641   52.4646 C.2     1  ZINC000547864253    0.0600
      9 N9         -9.3335   -1.8028   52.0540 N.pl3   1  ZINC000547864253   -0.5900
     10 C10        -9.0791   -0.5770   52.6273 C.ar    1  ZINC000547864253    0.1000
     11 C11        -8.0124    0.3122   52.5526 C.ar    1  ZINC000547864253   -0.1300
     12 C12        -8.0536    1.4917   53.2639 C.ar    1  ZINC000547864253   -0.1000
     13 C13        -9.1501    1.8029   54.0556 C.ar    1  ZINC000547864253   -0.1400
     14 C14       -10.2092    0.9436   54.1435 C.ar    1  ZINC000547864253   -0.0700
     15 C15       -10.1913   -0.2540   53.4264 C.ar    1  ZINC000547864253   -0.1000
     16 C16       -13.4982   -1.9148   52.9476 C.ar    1  ZINC000547864253   -0.0700
     17 C17       -14.6412   -2.5813   53.3480 C.ar    1  ZINC000547864253   -0.1100
     18 C18       -15.5885   -2.9526   52.4122 C.ar    1  ZINC000547864253   -0.1200
     19 C19       -15.3930   -2.6571   51.0760 C.ar    1  ZINC000547864253   -0.1200
     20 C20       -14.2505   -1.9897   50.6757 C.ar    1  ZINC000547864253   -0.1100
     21 C21       -13.3053   -1.6146   51.6121 C.ar    1  ZINC000547864253   -0.1200
     22 C22        -9.9378   -2.6575   58.0051 C.3     1  ZINC000547864253   -0.1700
     23 H23        -8.9561   -2.3982   57.6084 H       1  ZINC000547864253    0.1400
     24 C24        -9.9887   -3.3461   59.3702 C.3     1  ZINC000547864253   -0.1300
     25 C25       -10.4307   -1.8862   59.2324 C.3     1  ZINC000547864253   -0.1400
     26 C26        -9.5043   -0.8135   59.8066 C.3     1  ZINC000547864253   -0.0700
     27 C27        -9.7257   -0.6948   61.3160 C.3     1  ZINC000547864253   -0.6000
     28 S28       -11.4474   -0.2125   61.6310 S.o2    1  ZINC000547864253    2.4200
     29 O29       -11.6965   -0.3044   63.0270 O.2     1  ZINC000547864253   -0.9400
     30 O30       -11.7062    1.0120   60.9582 O.2     1  ZINC000547864253   -0.9300
     31 C31       -12.3566   -1.5409   60.7911 C.3     1  ZINC000547864253   -0.6000
     32 C32       -11.9289   -1.5932   59.3228 C.3     1  ZINC000547864253   -0.0700
     33 H33       -11.0295   -1.2767   56.0540 H       1  ZINC000547864253    0.4000
     34 H34       -12.0997   -3.5298   54.6219 H       1  ZINC000547864253    0.0800
     35 H35       -13.3590   -2.6747   55.5445 H       1  ZINC000547864253    0.0700
     36 H36       -10.9961   -3.2026   52.1634 H       1  ZINC000547864253    0.1700
     37 H37        -8.7361   -2.2699   51.4492 H       1  ZINC000547864253    0.4200
     38 H38        -7.1544    0.0789   51.9396 H       1  ZINC000547864253    0.1200
     39 H39        -7.2240    2.1807   53.2049 H       1  ZINC000547864253    0.1300
     40 H40        -9.1664    2.7314   54.6070 H       1  ZINC000547864253    0.1200
     41 H41       -11.0591    1.1925   54.7616 H       1  ZINC000547864253    0.1200
     42 H42       -14.7938   -2.8124   54.3919 H       1  ZINC000547864253    0.1200
     43 H43       -16.4811   -3.4740   52.7250 H       1  ZINC000547864253    0.1200
     44 H44       -16.1328   -2.9477   50.3448 H       1  ZINC000547864253    0.1200
     45 H45       -14.0977   -1.7590   49.6318 H       1  ZINC000547864253    0.1200
     46 H46       -12.4127   -1.0932   51.2993 H       1  ZINC000547864253    0.1200
     47 H47       -10.7653   -4.0945   59.5277 H       1  ZINC000547864253    0.1100
     48 H48        -9.0406   -3.5396   59.8719 H       1  ZINC000547864253    0.1100
     49 H49        -8.4674   -1.0880   59.6126 H       1  ZINC000547864253    0.0900
     50 H50        -9.7201    0.1438   59.3320 H       1  ZINC000547864253    0.0900
     51 H51        -9.5240   -1.6553   61.7902 H       1  ZINC000547864253    0.1400
     52 H52        -9.0552    0.0616   61.7241 H       1  ZINC000547864253    0.1400
     53 H53       -12.1330   -2.4943   61.2697 H       1  ZINC000547864253    0.1400
     54 H54       -13.4271   -1.3443   60.8518 H       1  ZINC000547864253    0.1400
     55 H55       -12.1401   -0.6344   58.8492 H       1  ZINC000547864253    0.0900
     56 H56       -12.4838   -2.3796   58.8113 H       1  ZINC000547864253    0.0900
@<TRIPOS>BOND
     1     1     2    2
     2     2     3   am
     3     2    22    1
     4     3     4    1
     5     3    33    1
     6     4     5    1
     7     4    34    1
     8     4    35    1
     9     5     6    1
    10     5     7    1
    11     5    16    1
    12     7    15    1
    13     7     8    2
    14     8     9    1
    15     8    36    1
    16     9    10    1
    17     9    37    1
    18    10    15   ar
    19    10    11   ar
    20    11    12   ar
    21    11    38    1
    22    12    13   ar
    23    12    39    1
    24    13    14   ar
    25    13    40    1
    26    14    15   ar
    27    14    41    1
    28    16    21   ar
    29    16    17   ar
    30    17    18   ar
    31    17    42    1
    32    18    19   ar
    33    18    43    1
    34    19    20   ar
    35    19    44    1
    36    20    21   ar
    37    20    45    1
    38    21    46    1
    39    22    23    1
    40    22    25    1
    41    22    24    1
    42    24    25    1
    43    24    47    1
    44    24    48    1
    45    25    32    1
    46    25    26    1
    47    26    27    1
    48    26    49    1
    49    26    50    1
    50    27    28    1
    51    27    51    1
    52    27    52    1
    53    28    29    2
    54    28    30    2
    55    28    31    1
    56    31    32    1
    57    31    53    1
    58    31    54    1
    59    32    55    1
    60    32    56    1
@<TRIPOS>SUBSTRUCTURE
     1 ZINC000547864253        1 TEMP              0 ****  ****    0 ROOT


##########                                Name:    ZINC000506156755
##########                DOCK_Rotatable_Bonds:                   7
##########                         Heavy_Atoms:                  30
##########                    Molecular_Weight:             400.434
##########                DOCK_Rotatable_Bonds:                   7
##########                       Formal_Charge:          -0.0200001
##########                     HBond_Acceptors:                   6
##########                        HBond_Donors:                   1
##########                         Heavy_Atoms:                  30
##########                          Grid_Score:          -33.440086
##########                     Grid_vdw_energy:          -31.746958
##########                      Grid_es_energy:           -1.693130
##########           Internal_energy_repulsive:           12.595384

@<TRIPOS>MOLECULE
ZINC000506156755
 50 53 1 0 0
SMALL
USER_CHARGES


@<TRIPOS>ATOM
      1 C1        -11.3982   -4.3846   52.8385 C.3     1  ZINC000506156755   -0.1600
      2 C2        -11.9282   -3.1916   53.6364 C.3     1  ZINC000506156755    0.1900
      3 H3        -11.1177   -2.4853   53.8155 H       1  ZINC000506156755    0.1000
      4 N4        -12.4605   -3.6594   54.9187 N.am    1  ZINC000506156755   -0.7200
      5 C5        -11.6989   -3.5942   56.0286 C.2     1  ZINC000506156755    0.5000
      6 O6        -10.5723   -3.1496   55.9657 O.2     1  ZINC000506156755   -0.5200
      7 C7        -12.2471   -4.0737   57.3480 C.3     1  ZINC000506156755    0.0900
      8 N8        -11.5415   -3.4030   58.4427 N.am    1  ZINC000506156755   -0.5600
      9 C9        -10.3788   -3.8259   58.9709 C.2     1  ZINC000506156755    0.5800
     10 O10        -9.7573   -4.8090   58.6212 O.2     1  ZINC000506156755   -0.4600
     11 C11        -9.9837   -2.8933   60.0475 C.ar    1  ZINC000506156755   -0.1400
     12 C12        -8.9105   -2.8222   60.9204 C.ar    1  ZINC000506156755   -0.0400
     13 C13        -8.8390   -1.7860   61.8390 C.ar    1  ZINC000506156755   -0.0900
     14 C14        -9.8305   -0.8249   61.8892 C.ar    1  ZINC000506156755   -0.0900
     15 C15       -10.9106   -0.8832   61.0218 C.ar    1  ZINC000506156755   -0.0400
     16 C16       -10.9954   -1.9127   60.0988 C.ar    1  ZINC000506156755   -0.1400
     17 C17       -11.9681   -2.2800   59.0481 C.2     1  ZINC000506156755    0.5800
     18 O18       -12.9835   -1.6710   58.7780 O.2     1  ZINC000506156755   -0.4600
     19 C19       -13.0236   -2.5119   52.8558 C.ar    1  ZINC000506156755   -0.1200
     20 C20       -14.3048   -3.0274   52.8702 C.ar    1  ZINC000506156755   -0.0800
     21 C21       -15.3105   -2.4040   52.1544 C.ar    1  ZINC000506156755   -0.1400
     22 C22       -15.0365   -1.2634   51.4228 C.ar    1  ZINC000506156755   -0.0800
     23 C23       -13.7566   -0.7436   51.4049 C.ar    1  ZINC000506156755   -0.1900
     24 C24       -12.7470   -1.3641   52.1264 C.ar    1  ZINC000506156755    0.1300
     25 O25       -11.4873   -0.8546   52.1109 O.3     1  ZINC000506156755   -0.2500
     26 C26       -11.1721    0.0955   53.0298 C.ar    1  ZINC000506156755    0.0800
     27 C27       -12.1513    0.5962   53.8759 C.ar    1  ZINC000506156755   -0.1400
     28 C28       -11.8282    1.5620   54.8091 C.ar    1  ZINC000506156755   -0.1000
     29 C29       -10.5303    2.0299   54.9005 C.ar    1  ZINC000506156755   -0.1200
     30 C30        -9.5526    1.5327   54.0585 C.ar    1  ZINC000506156755   -0.1000
     31 C31        -9.8692    0.5627   53.1274 C.ar    1  ZINC000506156755   -0.1200
     32 H32       -10.6060   -4.8762   53.4032 H       1  ZINC000506156755    0.0700
     33 H33       -12.2088   -5.0910   52.6595 H       1  ZINC000506156755    0.0600
     34 H34       -11.0021   -4.0365   51.8845 H       1  ZINC000506156755    0.0700
     35 H35       -13.3612   -4.0161   54.9688 H       1  ZINC000506156755    0.4000
     36 H36       -13.3106   -3.8420   57.4052 H       1  ZINC000506156755    0.1300
     37 H37       -12.1050   -5.1513   57.4303 H       1  ZINC000506156755    0.1300
     38 H38        -8.1328   -3.5709   60.8859 H       1  ZINC000506156755    0.1400
     39 H39        -8.0028   -1.7300   62.5201 H       1  ZINC000506156755    0.1400
     40 H40        -9.7639   -0.0228   62.6094 H       1  ZINC000506156755    0.1400
     41 H41       -11.6825   -0.1290   61.0653 H       1  ZINC000506156755    0.1400
     42 H42       -14.5215   -3.9186   53.4407 H       1  ZINC000506156755    0.1300
     43 H43       -16.3115   -2.8090   52.1668 H       1  ZINC000506156755    0.1300
     44 H44       -15.8235   -0.7785   50.8644 H       1  ZINC000506156755    0.1300
     45 H45       -13.5429    0.1472   50.8329 H       1  ZINC000506156755    0.1300
     46 H46       -13.1652    0.2312   53.8047 H       1  ZINC000506156755    0.1300
     47 H47       -12.5900    1.9522   55.4677 H       1  ZINC000506156755    0.1300
     48 H48       -10.2798    2.7854   55.6306 H       1  ZINC000506156755    0.1300
     49 H49        -8.5396    1.8999   54.1320 H       1  ZINC000506156755    0.1300
     50 H50        -9.1052    0.1744   52.4703 H       1  ZINC000506156755    0.1300
@<TRIPOS>BOND
     1     1     2    1
     2     1    32    1
     3     1    33    1
     4     1    34    1
     5     2     3    1
     6     2     4    1
     7     2    19    1
     8     4     5   am
     9     4    35    1
    10     5     6    2
    11     5     7    1
    12     7     8    1
    13     7    36    1
    14     7    37    1
    15     8    17   am
    16     8     9   am
    17     9    10    2
    18     9    11    1
    19    11    16   ar
    20    11    12   ar
    21    12    13   ar
    22    12    38    1
    23    13    14   ar
    24    13    39    1
    25    14    15   ar
    26    14    40    1
    27    15    16   ar
    28    15    41    1
    29    16    17    1
    30    17    18    2
    31    19    24   ar
    32    19    20   ar
    33    20    21   ar
    34    20    42    1
    35    21    22   ar
    36    21    43    1
    37    22    23   ar
    38    22    44    1
    39    23    24   ar
    40    23    45    1
    41    24    25    1
    42    25    26    1
    43    26    31   ar
    44    26    27   ar
    45    27    28   ar
    46    27    46    1
    47    28    29   ar
    48    28    47    1
    49    29    30   ar
    50    29    48    1
    51    30    31   ar
    52    30    49    1
    53    31    50    1
@<TRIPOS>SUBSTRUCTURE
     1 ZINC000506156755        1 TEMP              0 ****  ****    0 ROOT


##########                                Name:    ZINC000263872566
##########                DOCK_Rotatable_Bonds:                   9
##########                         Heavy_Atoms:                  26
##########                    Molecular_Weight:             362.469
##########                DOCK_Rotatable_Bonds:                   9
##########                       Formal_Charge:           0.0300001
##########                     HBond_Acceptors:                   6
##########                        HBond_Donors:                   2
##########                         Heavy_Atoms:                  26
##########                          Grid_Score:          -33.438721
##########                     Grid_vdw_energy:          -31.452082
##########                      Grid_es_energy:           -1.986641
##########           Internal_energy_repulsive:           18.876179

@<TRIPOS>MOLECULE
ZINC000263872566
 56 57 1 0 0
SMALL
USER_CHARGES


@<TRIPOS>ATOM
      1 C1        -14.6821   -1.5550   50.7397 C.3     1  ZINC000263872566   -0.1800
      2 C2        -13.2370   -1.1757   51.0692 C.3     1  ZINC000263872566    0.1400
      3 H3        -12.5816   -1.5073   50.2637 H       1  ZINC000263872566    0.0700
      4 O4        -13.1373    0.2427   51.2109 O.3     1  ZINC000263872566   -0.5600
      5 C5        -12.8246   -1.8395   52.3577 C.ar    1  ZINC000263872566   -0.0800
      6 C6        -13.6212   -1.7221   53.4814 C.ar    1  ZINC000263872566   -0.0900
      7 C7        -13.2430   -2.3309   54.6635 C.ar    1  ZINC000263872566   -0.1000
      8 C8        -12.0686   -3.0577   54.7216 C.ar    1  ZINC000263872566   -0.1100
      9 C9        -11.6561   -3.7211   56.0104 C.3     1  ZINC000263872566    0.1800
     10 N10       -11.3000   -2.6964   56.9949 N.am    1  ZINC000263872566   -0.7400
     11 C11       -10.4886   -3.0056   58.0257 C.2     1  ZINC000263872566    0.7100
     12 O12       -10.0522   -4.1349   58.1386 O.2     1  ZINC000263872566   -0.5900
     13 N13       -10.1609   -2.0629   58.9316 N.am    1  ZINC000263872566   -0.6300
     14 C14       -10.6850   -0.6955   58.8120 C.3     1  ZINC000263872566    0.1100
     15 C15       -11.3618   -0.3098   60.1311 C.3     1  ZINC000263872566   -0.1200
     16 C16       -10.3737   -0.5057   61.2832 C.3     1  ZINC000263872566   -0.0800
     17 C17       -11.0249   -0.0949   62.5786 C.2     1  ZINC000263872566    0.4700
     18 O18       -12.1817    0.2541   62.5892 O.2     1  ZINC000263872566   -0.5000
     19 O19       -10.3201   -0.1168   63.7207 O.3     1  ZINC000263872566   -0.3500
     20 C20        -9.8693    1.1614   64.2417 C.3     1  ZINC000263872566    0.1200
     21 C21        -9.9328    2.2147   63.1338 C.3     1  ZINC000263872566   -0.1800
     22 C22       -10.7720    1.5862   65.4017 C.3     1  ZINC000263872566   -0.1400
     23 C23        -8.4283    1.0301   64.7386 C.3     1  ZINC000263872566   -0.1800
     24 C24        -9.9653   -1.9785   61.3624 C.3     1  ZINC000263872566   -0.1300
     25 C25        -9.2775   -2.3847   60.0607 C.3     1  ZINC000263872566    0.1300
     26 C26       -11.2728   -3.1764   53.5975 C.ar    1  ZINC000263872566   -0.1000
     27 C27       -11.6528   -2.5706   52.4146 C.ar    1  ZINC000263872566   -0.1100
     28 H28       -15.3374   -1.2234   51.5451 H       1  ZINC000263872566    0.0700
     29 H29       -14.9803   -1.0749   49.8076 H       1  ZINC000263872566    0.0600
     30 H30       -14.7582   -2.6369   50.6316 H       1  ZINC000263872566    0.0700
     31 H31       -12.2522    0.5533   51.4463 H       1  ZINC000263872566    0.3800
     32 H32       -14.5387   -1.1542   53.4360 H       1  ZINC000263872566    0.1300
     33 H33       -13.8650   -2.2385   55.5416 H       1  ZINC000263872566    0.1300
     34 H34       -12.4833   -4.3198   56.3918 H       1  ZINC000263872566    0.0800
     35 H35       -10.7955   -4.3648   55.8283 H       1  ZINC000263872566    0.0800
     36 H36       -11.6481   -1.7955   56.9050 H       1  ZINC000263872566    0.4000
     37 H37        -9.8655   -0.0068   58.6067 H       1  ZINC000263872566    0.0800
     38 H38       -11.4129   -0.6528   58.0017 H       1  ZINC000263872566    0.0800
     39 H39       -11.6702    0.7348   60.0900 H       1  ZINC000263872566    0.0900
     40 H40       -12.2357   -0.9416   60.2900 H       1  ZINC000263872566    0.0800
     41 H41        -9.4891    0.1075   61.1110 H       1  ZINC000263872566    0.1100
     42 H42       -10.9595    2.3083   62.7799 H       1  ZINC000263872566    0.0600
     43 H43        -9.5945    3.1743   63.5249 H       1  ZINC000263872566    0.0700
     44 H44        -9.2897    1.9121   62.3074 H       1  ZINC000263872566    0.0800
     45 H45       -10.7268    0.8359   66.1909 H       1  ZINC000263872566    0.0700
     46 H46       -10.4337    2.5458   65.7927 H       1  ZINC000263872566    0.0800
     47 H47       -11.7988    1.6798   65.0477 H       1  ZINC000263872566    0.0700
     48 H48        -7.7851    0.7275   63.9122 H       1  ZINC000263872566    0.0800
     49 H49        -8.0899    1.9896   65.1297 H       1  ZINC000263872566    0.0700
     50 H50        -8.3830    0.2797   65.5278 H       1  ZINC000263872566    0.0600
     51 H51        -9.2796   -2.1214   62.1976 H       1  ZINC000263872566    0.0900
     52 H52       -10.8523   -2.5945   61.5097 H       1  ZINC000263872566    0.0700
     53 H53        -9.0741   -3.4554   60.0735 H       1  ZINC000263872566    0.1000
     54 H54        -8.3427   -1.8342   59.9541 H       1  ZINC000263872566    0.0700
     55 H55       -10.3554   -3.7444   53.6429 H       1  ZINC000263872566    0.1300
     56 H56       -11.0311   -2.6633   51.5364 H       1  ZINC000263872566    0.1300
@<TRIPOS>BOND
     1     1     2    1
     2     1    28    1
     3     1    29    1
     4     1    30    1
     5     2     3    1
     6     2     4    1
     7     2     5    1
     8     4    31    1
     9     5    27   ar
    10     5     6   ar
    11     6     7   ar
    12     6    32    1
    13     7     8   ar
    14     7    33    1
    15     8     9    1
    16     8    26   ar
    17     9    10    1
    18     9    34    1
    19     9    35    1
    20    10    11   am
    21    10    36    1
    22    11    12    2
    23    11    13   am
    24    13    25    1
    25    13    14    1
    26    14    15    1
    27    14    37    1
    28    14    38    1
    29    15    16    1
    30    15    39    1
    31    15    40    1
    32    16    17    1
    33    16    24    1
    34    16    41    1
    35    17    18    2
    36    17    19    1
    37    19    20    1
    38    20    21    1
    39    20    22    1
    40    20    23    1
    41    21    42    1
    42    21    43    1
    43    21    44    1
    44    22    45    1
    45    22    46    1
    46    22    47    1
    47    23    48    1
    48    23    49    1
    49    23    50    1
    50    24    25    1
    51    24    51    1
    52    24    52    1
    53    25    53    1
    54    25    54    1
    55    26    27   ar
    56    26    55    1
    57    27    56    1
@<TRIPOS>SUBSTRUCTURE
     1 ZINC000263872566        1 TEMP              0 ****  ****    0 ROOT


##########                                Name:    ZINC000800038938
##########                DOCK_Rotatable_Bonds:                   6
##########                         Heavy_Atoms:                  25
##########                    Molecular_Weight:             386.274
##########                DOCK_Rotatable_Bonds:                   6
##########                       Formal_Charge:           0.0200003
##########                     HBond_Acceptors:                   7
##########                        HBond_Donors:                   0
##########                         Heavy_Atoms:                  25
##########                          Grid_Score:          -33.430412
##########                     Grid_vdw_energy:          -32.241657
##########                      Grid_es_energy:           -1.188754
##########           Internal_energy_repulsive:           10.885285

@<TRIPOS>MOLECULE
ZINC000800038938
 46 48 1 0 0
SMALL
USER_CHARGES


@<TRIPOS>ATOM
      1 C1        -15.5981   -1.1175   65.8108 C.3     1  ZINC000800038938    0.0300
      2 O2        -16.3201   -0.7883   64.6224 O.3     1  ZINC000800038938   -0.3800
      3 C3        -15.5884    0.0270   63.7048 C.3     1  ZINC000800038938    0.0900
      4 H4        -15.2500    0.9363   64.2016 H       1  ZINC000800038938    0.0700
      5 C5        -16.4740    0.3848   62.4935 C.3     1  ZINC000800038938   -0.1400
      6 C6        -15.5005    0.3557   61.2893 C.3     1  ZINC000800038938   -0.1400
      7 C7        -14.5775   -0.8421   61.6248 C.3     1  ZINC000800038938    0.0900
      8 H8        -15.0594   -1.7821   61.3559 H       1  ZINC000800038938    0.0900
      9 O9        -13.3046   -0.7106   60.9388 O.3     1  ZINC000800038938   -0.3500
     10 C10       -12.6474   -1.8451   60.6509 C.2     1  ZINC000800038938    0.4500
     11 O11       -13.1149   -2.9120   60.9717 O.2     1  ZINC000800038938   -0.4800
     12 C12       -11.3266   -1.7880   59.9276 C.3     1  ZINC000800038938    0.1500
     13 H13       -11.0218   -0.7500   59.7942 H       1  ZINC000800038938    0.1200
     14 C14       -10.2536   -2.5506   60.7333 C.3     1  ZINC000800038938   -0.1200
     15 C15        -9.4224   -3.2528   59.6271 C.3     1  ZINC000800038938   -0.1300
     16 C16       -10.5172   -3.5967   58.5865 C.3     1  ZINC000800038938    0.0900
     17 N17       -11.4445   -2.4468   58.6186 N.am    1  ZINC000800038938   -0.6000
     18 C18       -12.2624   -2.0691   57.6162 C.2     1  ZINC000800038938    0.5800
     19 O19       -12.9862   -1.1022   57.7540 O.2     1  ZINC000800038938   -0.4900
     20 C20       -12.2795   -2.8305   56.3498 C.ar    1  ZINC000800038938   -0.1100
     21 C21       -11.4054   -2.4911   55.3159 C.ar    1  ZINC000800038938   -0.0700
     22 C22       -11.4267   -3.2065   54.1355 C.ar    1  ZINC000800038938   -0.0400
     23 Cl23      -10.3400   -2.7863   52.8485 Cl      1  ZINC000800038938   -0.0500
     24 C24       -12.3126   -4.2590   53.9756 C.ar    1  ZINC000800038938   -0.0700
     25 C25       -13.1816   -4.6005   54.9958 C.ar    1  ZINC000800038938   -0.1000
     26 C26       -13.1668   -3.8972   56.1842 C.ar    1  ZINC000800038938    0.0100
     27 Cl27      -14.2585   -4.3274   57.4636 Cl      1  ZINC000800038938   -0.0300
     28 C28       -14.3818   -0.7527   63.1534 C.3     1  ZINC000800038938   -0.1200
     29 H29       -16.2217   -1.7376   66.4548 H       1  ZINC000800038938    0.0900
     30 H30       -14.6928   -1.6639   65.5464 H       1  ZINC000800038938    0.0400
     31 H31       -15.3291   -0.2020   66.3379 H       1  ZINC000800038938    0.0400
     32 H32       -17.2623   -0.3571   62.3649 H       1  ZINC000800038938    0.0800
     33 H33       -16.9017    1.3801   62.6144 H       1  ZINC000800038938    0.0800
     34 H34       -16.0411    0.1781   60.3596 H       1  ZINC000800038938    0.0800
     35 H35       -14.9274    1.2811   61.2334 H       1  ZINC000800038938    0.0800
     36 H36        -9.6327   -1.8577   61.3010 H       1  ZINC000800038938    0.1000
     37 H37       -10.7161   -3.2849   61.3928 H       1  ZINC000800038938    0.0900
     38 H38        -8.6814   -2.5739   59.2049 H       1  ZINC000800038938    0.0900
     39 H39        -8.9488   -4.1571   60.0091 H       1  ZINC000800038938    0.1000
     40 H40       -10.0781   -3.7006   57.5943 H       1  ZINC000800038938    0.0900
     41 H41       -11.0363   -4.5121   58.8703 H       1  ZINC000800038938    0.0800
     42 H42       -10.7143   -1.6704   55.4390 H       1  ZINC000800038938    0.1500
     43 H43       -12.3249   -4.8154   53.0501 H       1  ZINC000800038938    0.1500
     44 H44       -13.8703   -5.4222   54.8644 H       1  ZINC000800038938    0.1500
     45 H45       -13.4573   -0.2219   63.3811 H       1  ZINC000800038938    0.0900
     46 H46       -14.3546   -1.7530   63.5855 H       1  ZINC000800038938    0.0900
@<TRIPOS>BOND
     1     1     2    1
     2     1    29    1
     3     1    30    1
     4     1    31    1
     5     2     3    1
     6     3     4    1
     7     3    28    1
     8     3     5    1
     9     5     6    1
    10     5    32    1
    11     5    33    1
    12     6     7    1
    13     6    34    1
    14     6    35    1
    15     7     8    1
    16     7     9    1
    17     7    28    1
    18     9    10    1
    19    10    11    2
    20    10    12    1
    21    12    13    1
    22    12    17    1
    23    12    14    1
    24    14    15    1
    25    14    36    1
    26    14    37    1
    27    15    16    1
    28    15    38    1
    29    15    39    1
    30    16    17    1
    31    16    40    1
    32    16    41    1
    33    17    18   am
    34    18    19    2
    35    18    20    1
    36    20    26   ar
    37    20    21   ar
    38    21    22   ar
    39    21    42    1
    40    22    23    1
    41    22    24   ar
    42    24    25   ar
    43    24    43    1
    44    25    26   ar
    45    25    44    1
    46    26    27    1
    47    28    45    1
    48    28    46    1
@<TRIPOS>SUBSTRUCTURE
     1 ZINC000800038938        1 TEMP              0 ****  ****    0 ROOT


##########                                Name:    ZINC001328997126
##########                DOCK_Rotatable_Bonds:                   7
##########                         Heavy_Atoms:                  26
##########                    Molecular_Weight:             388.488
##########                DOCK_Rotatable_Bonds:                   7
##########                       Formal_Charge:           0.0299993
##########                     HBond_Acceptors:                  10
##########                        HBond_Donors:                   1
##########                         Heavy_Atoms:                  26
##########                          Grid_Score:          -33.423016
##########                     Grid_vdw_energy:          -31.818714
##########                      Grid_es_energy:           -1.604300
##########           Internal_energy_repulsive:            7.978117

@<TRIPOS>MOLECULE
ZINC001328997126
 54 56 1 0 0
SMALL
USER_CHARGES


@<TRIPOS>ATOM
      1 C1        -16.8268   -0.1655   46.8090 C.3     1  ZINC001328997126   -0.1700
      2 C2        -15.5618   -1.0067   46.9914 C.3     1  ZINC001328997126    0.1400
      3 N3        -15.3385   -1.2495   48.4187 N.am    1  ZINC001328997126   -0.6300
      4 C4        -14.5584   -0.3887   49.3210 C.3     1  ZINC001328997126    0.0700
      5 C5        -14.6511   -1.1047   50.6823 C.3     1  ZINC001328997126    0.0700
      6 H6        -15.1397   -0.4655   51.4178 H       1  ZINC001328997126    0.1200
      7 C7        -13.2594   -1.5134   51.1693 C.3     1  ZINC001328997126    0.0500
      8 N8        -13.3884   -2.5183   52.2329 N.3     1  ZINC001328997126   -0.5300
      9 C9        -14.1709   -1.9940   53.3609 C.3     1  ZINC001328997126    0.0500
     10 C10       -14.3494   -3.0942   54.4097 C.3     1  ZINC001328997126    0.0600
     11 N11       -13.0292   -3.5581   54.8588 N.3     1  ZINC001328997126   -0.5200
     12 C12       -13.1582   -4.5631   55.9224 C.3     1  ZINC001328997126    0.0400
     13 C13       -12.8066   -3.9393   57.2484 C.2     1  ZINC001328997126    0.5200
     14 O14       -13.6665   -3.7731   58.0874 O.2     1  ZINC001328997126   -0.5100
     15 N15       -11.5366   -3.5660   57.5019 N.am    1  ZINC001328997126   -0.7300
     16 C16       -11.1952   -2.9580   58.7903 C.3     1  ZINC001328997126    0.1600
     17 H17       -11.9512   -3.2195   59.5307 H       1  ZINC001328997126    0.1100
     18 C18        -9.8192   -3.4667   59.2541 C.3     1  ZINC001328997126   -0.1400
     19 C19        -9.3792   -2.5509   60.4253 C.3     1  ZINC001328997126   -0.5800
     20 S20        -9.8477   -0.8835   59.8253 S.o2    1  ZINC001328997126    2.4000
     21 O21       -10.4601   -0.1576   60.8823 O.2     1  ZINC001328997126   -0.9300
     22 O22        -8.7560   -0.3145   59.1156 O.2     1  ZINC001328997126   -0.9300
     23 C23       -11.1271   -1.4253   58.6382 C.3     1  ZINC001328997126   -0.6100
     24 C24       -12.2467   -4.0825   53.7309 C.3     1  ZINC001328997126    0.0500
     25 C25       -12.0682   -2.9822   52.6820 C.3     1  ZINC001328997126    0.0600
     26 O26       -15.4650   -2.2814   50.4073 O.3     1  ZINC001328997126   -0.3100
     27 C27       -15.8162   -2.2890   49.1165 C.2     1  ZINC001328997126    0.6400
     28 O28       -16.4991   -3.1629   48.6203 O.2     1  ZINC001328997126   -0.5200
     29 H29       -17.6813   -0.6994   47.2248 H       1  ZINC001328997126    0.0600
     30 H30       -16.7072    0.7870   47.3252 H       1  ZINC001328997126    0.0600
     31 H31       -16.9930    0.0152   45.7470 H       1  ZINC001328997126    0.0700
     32 H32       -15.6814   -1.9592   46.4751 H       1  ZINC001328997126    0.0900
     33 H33       -14.7074   -0.4729   46.5755 H       1  ZINC001328997126    0.0900
     34 H34       -13.5216   -0.3275   48.9904 H       1  ZINC001328997126    0.0900
     35 H35       -15.0018    0.6053   49.3802 H       1  ZINC001328997126    0.0900
     36 H36       -12.6929   -1.9341   50.3386 H       1  ZINC001328997126    0.0900
     37 H37       -12.7388   -0.6380   51.5577 H       1  ZINC001328997126    0.0600
     38 H38       -13.6458   -1.1489   53.8061 H       1  ZINC001328997126    0.0500
     39 H39       -15.1485   -1.6686   53.0052 H       1  ZINC001328997126    0.0900
     40 H40       -14.9048   -2.6991   55.2603 H       1  ZINC001328997126    0.0800
     41 H41       -14.8983   -3.9281   53.9722 H       1  ZINC001328997126    0.0500
     42 H42       -14.1844   -4.9292   55.9539 H       1  ZINC001328997126    0.1100
     43 H43       -12.4819   -5.3940   55.7211 H       1  ZINC001328997126    0.0700
     44 H44       -10.8487   -3.7000   56.8313 H       1  ZINC001328997126    0.4100
     45 H45        -9.8986   -4.4985   59.5966 H       1  ZINC001328997126    0.1100
     46 H46        -9.1011   -3.3985   58.4368 H       1  ZINC001328997126    0.0900
     47 H47        -9.9223   -2.8007   61.3368 H       1  ZINC001328997126    0.1400
     48 H48        -8.3029   -2.6165   60.5846 H       1  ZINC001328997126    0.1400
     49 H49       -10.8385   -1.1568   57.6219 H       1  ZINC001328997126    0.1400
     50 H50       -12.0895   -0.9797   58.8896 H       1  ZINC001328997126    0.1500
     51 H51       -11.2691   -4.4078   54.0865 H       1  ZINC001328997126    0.1000
     52 H52       -12.7718   -4.9276   53.2857 H       1  ZINC001328997126    0.0400
     53 H53       -11.5129   -3.3774   51.8314 H       1  ZINC001328997126    0.0800
     54 H54       -11.5192   -2.1483   53.1195 H       1  ZINC001328997126    0.0500
@<TRIPOS>BOND
     1     1     2    1
     2     1    29    1
     3     1    30    1
     4     1    31    1
     5     2     3    1
     6     2    32    1
     7     2    33    1
     8     3    27   am
     9     3     4    1
    10     4     5    1
    11     4    34    1
    12     4    35    1
    13     5     6    1
    14     5     7    1
    15     5    26    1
    16     7     8    1
    17     7    36    1
    18     7    37    1
    19     8    25    1
    20     8     9    1
    21     9    10    1
    22     9    38    1
    23     9    39    1
    24    10    11    1
    25    10    40    1
    26    10    41    1
    27    11    12    1
    28    11    24    1
    29    12    13    1
    30    12    42    1
    31    12    43    1
    32    13    14    2
    33    13    15   am
    34    15    16    1
    35    15    44    1
    36    16    17    1
    37    16    23    1
    38    16    18    1
    39    18    19    1
    40    18    45    1
    41    18    46    1
    42    19    20    1
    43    19    47    1
    44    19    48    1
    45    20    21    2
    46    20    22    2
    47    20    23    1
    48    23    49    1
    49    23    50    1
    50    24    25    1
    51    24    51    1
    52    24    52    1
    53    25    53    1
    54    25    54    1
    55    26    27    1
    56    27    28    2
@<TRIPOS>SUBSTRUCTURE
     1 ZINC001328997126        1 TEMP              0 ****  ****    0 ROOT


##########                                Name:    ZINC000426037318
##########                DOCK_Rotatable_Bonds:                   7
##########                         Heavy_Atoms:                  28
##########                    Molecular_Weight:             421.904
##########                DOCK_Rotatable_Bonds:                   7
##########                       Formal_Charge:         -0.00999981
##########                     HBond_Acceptors:                   9
##########                        HBond_Donors:                   1
##########                         Heavy_Atoms:                  28
##########                          Grid_Score:          -33.409836
##########                     Grid_vdw_energy:          -32.794079
##########                      Grid_es_energy:           -0.615757
##########           Internal_energy_repulsive:           20.464342

@<TRIPOS>MOLECULE
ZINC000426037318
 48 50 1 0 0
SMALL
USER_CHARGES


@<TRIPOS>ATOM
      1 C1          1.4752    1.7983   39.5308 C.3     1  ZINC000426037318    0.0300
      2 O2          0.7192    0.6066   39.3068 O.3     1  ZINC000426037318   -0.3800
      3 C3          1.1580   -0.5137   40.0778 C.3     1  ZINC000426037318    0.1300
      4 C4          0.9997   -0.2070   41.5447 C.ar    1  ZINC000426037318    0.3900
      5 N5          2.0715    0.1036   42.2515 N.ar    1  ZINC000426037318   -0.5700
      6 C6          1.9876    0.3817   43.5415 C.ar    1  ZINC000426037318    0.4400
      7 O7          3.0967    0.6984   44.2497 O.3     1  ZINC000426037318   -0.2800
      8 C8          4.0821   -0.3249   44.4039 C.3     1  ZINC000426037318    0.0300
      9 C9          0.7151    0.3433   44.1729 C.ar    1  ZINC000426037318   -0.2000
     10 C10         0.3639    0.5929   45.5046 C.2     1  ZINC000426037318    0.0500
     11 C11         1.3833    0.9721   46.5476 C.3     1  ZINC000426037318   -0.1200
     12 C12        -0.9386    0.4724   45.7894 C.2     1  ZINC000426037318   -0.2700
     13 C13        -1.5263    0.6880   47.1174 C.2     1  ZINC000426037318    0.6000
     14 O14        -1.7894   -0.2640   47.8282 O.2     1  ZINC000426037318   -0.5000
     15 N15        -1.7745    1.9403   47.5492 N.am    1  ZINC000426037318   -0.6600
     16 C16        -2.3352    2.1461   48.8163 C.ar    1  ZINC000426037318    0.1200
     17 C17        -3.6021    1.6567   49.1028 C.ar    1  ZINC000426037318   -0.0700
     18 C18        -4.1543    1.8595   50.3527 C.ar    1  ZINC000426037318   -0.0900
     19 C19        -5.5296    1.3276   50.6636 C.3     1  ZINC000426037318   -0.1100
     20 C20        -3.4436    2.5521   51.3216 C.ar    1  ZINC000426037318    0.1300
     21 O21        -3.9881    2.7508   52.5516 O.3     1  ZINC000426037318   -0.3100
     22 C22        -3.2161    3.5040   53.4889 C.3     1  ZINC000426037318    0.0200
     23 C23        -2.1772    3.0420   51.0369 C.ar    1  ZINC000426037318   -0.1800
     24 C24        -1.6211    2.8356   49.7892 C.ar    1  ZINC000426037318   -0.0300
     25 Cl25       -0.0362    3.4479   49.4327 Cl      1  ZINC000426037318   -0.0600
     26 S26        -1.8473    0.0217   44.3568 S.3     1  ZINC000426037318    0.2200
     27 C27        -0.3884    0.0077   43.3752 C.ar    1  ZINC000426037318    0.1300
     28 N28        -0.2000   -0.2522   42.0769 N.ar    1  ZINC000426037318   -0.5000
     29 H29         1.0798    2.6016   38.9090 H       1  ZINC000426037318    0.0900
     30 H30         1.4031    2.0824   40.5806 H       1  ZINC000426037318    0.0500
     31 H31         2.5194    1.6200   39.2736 H       1  ZINC000426037318    0.0500
     32 H32         0.5587   -1.3876   39.8225 H       1  ZINC000426037318    0.0900
     33 H33         2.2067   -0.7161   39.8601 H       1  ZINC000426037318    0.0800
     34 H34         4.4401   -0.6354   43.4224 H       1  ZINC000426037318    0.0700
     35 H35         4.9167    0.0598   44.9901 H       1  ZINC000426037318    0.1100
     36 H36         3.6412   -1.1796   44.9170 H       1  ZINC000426037318    0.0700
     37 H37         1.4881    2.0568   46.5758 H       1  ZINC000426037318    0.0900
     38 H38         1.0557    0.6133   47.5233 H       1  ZINC000426037318    0.1000
     39 H39         2.3436    0.5208   46.2982 H       1  ZINC000426037318    0.0800
     40 H40        -1.5646    2.6993   46.9827 H       1  ZINC000426037318    0.4100
     41 H41        -4.1561    1.1176   48.3486 H       1  ZINC000426037318    0.1600
     42 H42        -5.4463    0.3176   51.0651 H       1  ZINC000426037318    0.0700
     43 H43        -6.0108    1.9724   51.3990 H       1  ZINC000426037318    0.0700
     44 H44        -6.1264    1.3081   49.7518 H       1  ZINC000426037318    0.0700
     45 H45        -2.2669    2.9987   53.6672 H       1  ZINC000426037318    0.0600
     46 H46        -3.0280    4.4998   53.0878 H       1  ZINC000426037318    0.0600
     47 H47        -3.7647    3.5880   54.4272 H       1  ZINC000426037318    0.1000
     48 H48        -1.6244    3.5813   51.7920 H       1  ZINC000426037318    0.1500
@<TRIPOS>BOND
     1     1     2    1
     2     1    29    1
     3     1    30    1
     4     1    31    1
     5     2     3    1
     6     3     4    1
     7     3    32    1
     8     3    33    1
     9     4    28   ar
    10     4     5   ar
    11     5     6   ar
    12     6     7    1
    13     6     9   ar
    14     7     8    1
    15     8    34    1
    16     8    35    1
    17     8    36    1
    18     9    27   ar
    19     9    10    1
    20    10    11    1
    21    10    12    2
    22    11    37    1
    23    11    38    1
    24    11    39    1
    25    12    13    1
    26    12    26    1
    27    13    14    2
    28    13    15   am
    29    15    16    1
    30    15    40    1
    31    16    24   ar
    32    16    17   ar
    33    17    18   ar
    34    17    41    1
    35    18    19    1
    36    18    20   ar
    37    19    42    1
    38    19    43    1
    39    19    44    1
    40    20    21    1
    41    20    23   ar
    42    21    22    1
    43    22    45    1
    44    22    46    1
    45    22    47    1
    46    23    24   ar
    47    23    48    1
    48    24    25    1
    49    26    27    1
    50    27    28   ar
@<TRIPOS>SUBSTRUCTURE
     1 ZINC000426037318        1 TEMP              0 ****  ****    0 ROOT


##########                                Name:    ZINC000859202493
##########                DOCK_Rotatable_Bonds:                  11
##########                         Heavy_Atoms:                  25
##########                    Molecular_Weight:             382.404
##########                DOCK_Rotatable_Bonds:                  11
##########                       Formal_Charge:          -0.0200009
##########                     HBond_Acceptors:                  10
##########                        HBond_Donors:                   3
##########                         Heavy_Atoms:                  25
##########                          Grid_Score:          -33.401592
##########                     Grid_vdw_energy:          -31.559298
##########                      Grid_es_energy:           -1.842296
##########           Internal_energy_repulsive:            9.432216

@<TRIPOS>MOLECULE
ZINC000859202493
 46 46 1 0 0
SMALL
USER_CHARGES


@<TRIPOS>ATOM
      1 C1        -14.5032   -0.9848   62.6348 C.3     1  ZINC000859202493   -0.1500
      2 C2        -13.6715    0.2255   62.2055 C.3     1  ZINC000859202493   -0.1200
      3 C3        -12.5654    0.4745   63.2329 C.3     1  ZINC000859202493   -0.1000
      4 H4        -12.2371   -0.4770   63.6511 H       1  ZINC000859202493    0.0700
      5 C5        -13.1021    1.3664   64.3542 C.3     1  ZINC000859202493   -0.1600
      6 C6        -11.3833    1.1672   62.5519 C.3     1  ZINC000859202493   -0.1200
      7 C7        -10.3891    0.1134   62.0599 C.3     1  ZINC000859202493    0.1600
      8 H8        -10.9309   -0.7793   61.7473 H       1  ZINC000859202493    0.1000
      9 C9         -9.4247   -0.2458   63.1921 C.3     1  ZINC000859202493    0.0500
     10 O10        -8.5381   -1.2772   62.7534 O.3     1  ZINC000859202493   -0.5700
     11 N11        -9.6325    0.6479   60.9251 N.am    1  ZINC000859202493   -1.1000
     12 S12       -10.1158    0.3141   59.3767 S.o2    1  ZINC000859202493    2.6900
     13 O13       -11.4822    0.6951   59.2920 O.2     1  ZINC000859202493   -0.9500
     14 O14        -9.1088    0.8360   58.5207 O.2     1  ZINC000859202493   -0.9500
     15 C15       -10.0746   -1.4369   59.1835 C.ar    1  ZINC000859202493   -0.6600
     16 C16        -8.9646   -2.1510   59.5952 C.ar    1  ZINC000859202493   -0.0300
     17 C17        -8.9282   -3.5254   59.4449 C.ar    1  ZINC000859202493   -0.1100
     18 C18       -10.0013   -4.1887   58.8833 C.ar    1  ZINC000859202493   -0.0600
     19 C19       -11.1180   -3.4742   58.4691 C.ar    1  ZINC000859202493    0.1200
     20 N20       -12.2071   -4.1434   57.9000 N.am    1  ZINC000859202493   -0.6500
     21 C21       -12.3294   -4.2136   56.5596 C.2     1  ZINC000859202493    0.4800
     22 O22       -11.4954   -3.6968   55.8467 O.2     1  ZINC000859202493   -0.4500
     23 C23       -13.5024   -4.9344   55.9468 C.3     1  ZINC000859202493    0.4600
     24 F24       -13.2018   -5.2731   54.6231 F       1  ZINC000859202493   -0.1500
     25 F25       -13.7682   -6.0977   56.6770 F       1  ZINC000859202493   -0.1600
     26 F26       -14.6261   -4.1015   55.9714 F       1  ZINC000859202493   -0.1600
     27 C27       -11.1536   -2.0950   58.6261 C.ar    1  ZINC000859202493   -0.0300
     28 H28       -15.2911   -1.1621   61.9029 H       1  ZINC000859202493    0.0500
     29 H29       -13.8609   -1.8633   62.6973 H       1  ZINC000859202493    0.0500
     30 H30       -14.9499   -0.7912   63.6099 H       1  ZINC000859202493    0.0600
     31 H31       -13.2246    0.0319   61.2303 H       1  ZINC000859202493    0.0600
     32 H32       -14.3136    1.1040   62.1430 H       1  ZINC000859202493    0.0600
     33 H33       -12.3141    1.5438   65.0860 H       1  ZINC000859202493    0.0500
     34 H34       -13.4304    2.3180   63.9358 H       1  ZINC000859202493    0.0600
     35 H35       -13.9442    0.8730   64.8393 H       1  ZINC000859202493    0.0600
     36 H36       -11.7431    1.7508   61.7045 H       1  ZINC000859202493    0.0800
     37 H37       -10.8895    1.8278   63.2645 H       1  ZINC000859202493    0.0800
     38 H38        -8.8471    0.6355   63.4707 H       1  ZINC000859202493    0.0600
     39 H39        -9.9914   -0.5965   64.0546 H       1  ZINC000859202493    0.0600
     40 H40        -7.8784   -0.9819   62.1111 H       1  ZINC000859202493    0.3800
     41 H41        -8.8485    1.1975   61.0805 H       1  ZINC000859202493    0.4200
     42 H42        -8.1242   -1.6346   60.0348 H       1  ZINC000859202493    0.1500
     43 H43        -8.0594   -4.0804   59.7669 H       1  ZINC000859202493    0.1400
     44 H44        -9.9720   -5.2619   58.7658 H       1  ZINC000859202493    0.1400
     45 H45       -12.8741   -4.5569   58.4702 H       1  ZINC000859202493    0.4200
     46 H46       -12.0205   -1.5366   58.3051 H       1  ZINC000859202493    0.1500
@<TRIPOS>BOND
     1     1     2    1
     2     1    28    1
     3     1    29    1
     4     1    30    1
     5     2     3    1
     6     2    31    1
     7     2    32    1
     8     3     4    1
     9     3     5    1
    10     3     6    1
    11     5    33    1
    12     5    34    1
    13     5    35    1
    14     6     7    1
    15     6    36    1
    16     6    37    1
    17     7     8    1
    18     7     9    1
    19     7    11    1
    20     9    10    1
    21     9    38    1
    22     9    39    1
    23    10    40    1
    24    11    12   am
    25    11    41    1
    26    12    13    2
    27    12    14    2
    28    12    15    1
    29    15    27   ar
    30    15    16   ar
    31    16    17   ar
    32    16    42    1
    33    17    18   ar
    34    17    43    1
    35    18    19   ar
    36    18    44    1
    37    19    20    1
    38    19    27   ar
    39    20    21   am
    40    20    45    1
    41    21    22    2
    42    21    23    1
    43    23    24    1
    44    23    25    1
    45    23    26    1
    46    27    46    1
@<TRIPOS>SUBSTRUCTURE
     1 ZINC000859202493        1 TEMP              0 ****  ****    0 ROOT


##########                                Name:    ZINC000840464592
##########                DOCK_Rotatable_Bonds:                  10
##########                         Heavy_Atoms:                  26
##########                    Molecular_Weight:             360.497
##########                DOCK_Rotatable_Bonds:                  10
##########                       Formal_Charge:          -0.0399996
##########                     HBond_Acceptors:                   5
##########                        HBond_Donors:                   1
##########                         Heavy_Atoms:                  26
##########                          Grid_Score:          -33.395416
##########                     Grid_vdw_energy:          -33.297600
##########                      Grid_es_energy:           -0.097818
##########           Internal_energy_repulsive:           83.564163

@<TRIPOS>MOLECULE
ZINC000840464592
 58 59 1 0 0
SMALL
USER_CHARGES


@<TRIPOS>ATOM
      1 C1        -11.5948    1.6704   63.1580 C.3     1  ZINC000840464592   -0.1500
      2 C2        -11.9704    1.4599   61.6898 C.3     1  ZINC000840464592   -0.1300
      3 C3        -13.2138    0.5726   61.6036 C.3     1  ZINC000840464592   -0.1200
      4 C4        -12.8959   -0.8084   62.1804 C.3     1  ZINC000840464592   -0.1200
      5 C5        -14.1144   -1.7200   62.0221 C.3     1  ZINC000840464592   -0.1200
      6 C6        -13.9463   -2.5834   60.7702 C.3     1  ZINC000840464592    0.0600
      7 O7        -14.2156   -1.7958   59.6087 O.3     1  ZINC000840464592   -0.3600
      8 C8        -15.1554   -2.3881   58.7099 C.3     1  ZINC000840464592    0.0800
      9 H9        -15.0877   -3.4740   58.7771 H       1  ZINC000840464592    0.0800
     10 C10       -16.5701   -1.9411   59.0836 C.3     1  ZINC000840464592   -0.1800
     11 C11       -14.8465   -1.9520   57.3008 C.2     1  ZINC000840464592    0.5200
     12 O12       -15.4736   -1.0451   56.7955 O.2     1  ZINC000840464592   -0.5000
     13 N13       -13.8736   -2.5696   56.6021 N.am    1  ZINC000840464592   -0.6000
     14 C14       -13.5778   -2.1434   55.2366 C.3     1  ZINC000840464592    0.0900
     15 C15       -13.8462   -3.2586   54.2324 C.3     1  ZINC000840464592   -0.1600
     16 C16       -12.9269   -4.4503   54.5089 C.3     1  ZINC000840464592    0.0800
     17 N17       -13.5787   -5.3453   55.4713 N.am    1  ZINC000840464592   -0.7200
     18 C18       -13.7086   -4.9807   56.7567 C.2     1  ZINC000840464592    0.5100
     19 O19       -14.2931   -5.6979   57.5411 O.2     1  ZINC000840464592   -0.5200
     20 C20       -13.1136   -3.6618   57.2192 C.3     1  ZINC000840464592    0.1400
     21 H21       -13.1833   -3.5898   58.3045 H       1  ZINC000840464592    0.1300
     22 C22       -11.6464   -3.5831   56.7927 C.3     1  ZINC000840464592   -0.1000
     23 C23       -10.8028   -3.1663   57.9698 C.ar    1  ZINC000840464592   -0.0900
     24 C24       -10.6551   -1.8260   58.2743 C.ar    1  ZINC000840464592   -0.1100
     25 C25        -9.8814   -1.4435   59.3540 C.ar    1  ZINC000840464592   -0.1200
     26 C26        -9.2555   -2.4015   60.1295 C.ar    1  ZINC000840464592   -0.1200
     27 C27        -9.4039   -3.7418   59.8257 C.ar    1  ZINC000840464592   -0.1200
     28 C28       -10.1811   -4.1244   58.7485 C.ar    1  ZINC000840464592   -0.1100
     29 H29       -11.3860    0.7062   63.6215 H       1  ZINC000840464592    0.0500
     30 H30       -10.7089    2.3024   63.2194 H       1  ZINC000840464592    0.0500
     31 H31       -12.4219    2.1525   63.6790 H       1  ZINC000840464592    0.0500
     32 H32       -12.1791    2.4241   61.2263 H       1  ZINC000840464592    0.0600
     33 H33       -11.1432    0.9777   61.1687 H       1  ZINC000840464592    0.0600
     34 H34       -14.0244    1.0266   62.1736 H       1  ZINC000840464592    0.0600
     35 H35       -13.5155    0.4702   60.5612 H       1  ZINC000840464592    0.0600
     36 H36       -12.0485   -1.2388   61.6467 H       1  ZINC000840464592    0.0600
     37 H37       -12.6488   -0.7125   63.2376 H       1  ZINC000840464592    0.0600
     38 H38       -14.2032   -2.3631   62.8977 H       1  ZINC000840464592    0.0700
     39 H39       -15.0134   -1.1113   61.9256 H       1  ZINC000840464592    0.0700
     40 H40       -12.9250   -2.9614   60.7241 H       1  ZINC000840464592    0.0500
     41 H41       -14.6424   -3.4212   60.8105 H       1  ZINC000840464592    0.0500
     42 H42       -17.2797   -2.3350   58.3560 H       1  ZINC000840464592    0.0800
     43 H43       -16.8199   -2.3176   60.0755 H       1  ZINC000840464592    0.0700
     44 H44       -16.6184   -0.8522   59.0855 H       1  ZINC000840464592    0.0800
     45 H45       -14.2005   -1.2837   54.9891 H       1  ZINC000840464592    0.1000
     46 H46       -12.5293   -1.8522   55.1736 H       1  ZINC000840464592    0.0800
     47 H47       -14.8854   -3.5770   54.3154 H       1  ZINC000840464592    0.0800
     48 H48       -13.6637   -2.8880   53.2237 H       1  ZINC000840464592    0.1000
     49 H49       -12.7388   -4.9888   53.5800 H       1  ZINC000840464592    0.0900
     50 H50       -11.9835   -4.0946   54.9230 H       1  ZINC000840464592    0.1000
     51 H51       -13.9180   -6.2051   55.1772 H       1  ZINC000840464592    0.4000
     52 H52       -11.3180   -4.5602   56.4383 H       1  ZINC000840464592    0.0900
     53 H53       -11.5395   -2.8515   55.9919 H       1  ZINC000840464592    0.1000
     54 H54       -11.1441   -1.0774   57.6683 H       1  ZINC000840464592    0.1200
     55 H55        -9.7655   -0.3963   59.5914 H       1  ZINC000840464592    0.1200
     56 H56        -8.6503   -2.1027   60.9728 H       1  ZINC000840464592    0.1200
     57 H57        -8.9145   -4.4902   60.4314 H       1  ZINC000840464592    0.1200
     58 H58       -10.2970   -5.1716   58.5111 H       1  ZINC000840464592    0.1200
@<TRIPOS>BOND
     1     1     2    1
     2     1    29    1
     3     1    30    1
     4     1    31    1
     5     2     3    1
     6     2    32    1
     7     2    33    1
     8     3     4    1
     9     3    34    1
    10     3    35    1
    11     4     5    1
    12     4    36    1
    13     4    37    1
    14     5     6    1
    15     5    38    1
    16     5    39    1
    17     6     7    1
    18     6    40    1
    19     6    41    1
    20     7     8    1
    21     8     9    1
    22     8    10    1
    23     8    11    1
    24    10    42    1
    25    10    43    1
    26    10    44    1
    27    11    12    2
    28    11    13   am
    29    13    20    1
    30    13    14    1
    31    14    15    1
    32    14    45    1
    33    14    46    1
    34    15    16    1
    35    15    47    1
    36    15    48    1
    37    16    17    1
    38    16    49    1
    39    16    50    1
    40    17    18   am
    41    17    51    1
    42    18    19    2
    43    18    20    1
    44    20    21    1
    45    20    22    1
    46    22    23    1
    47    22    52    1
    48    22    53    1
    49    23    28   ar
    50    23    24   ar
    51    24    25   ar
    52    24    54    1
    53    25    26   ar
    54    25    55    1
    55    26    27   ar
    56    26    56    1
    57    27    28   ar
    58    27    57    1
    59    28    58    1
@<TRIPOS>SUBSTRUCTURE
     1 ZINC000840464592        1 TEMP              0 ****  ****    0 ROOT


##########                                Name:    ZINC000279974681
##########                DOCK_Rotatable_Bonds:                   4
##########                         Heavy_Atoms:                  23
##########                    Molecular_Weight:              338.79
##########                DOCK_Rotatable_Bonds:                   4
##########                       Formal_Charge:           0.0100008
##########                     HBond_Acceptors:                   7
##########                        HBond_Donors:                   1
##########                         Heavy_Atoms:                  23
##########                          Grid_Score:          -33.394794
##########                     Grid_vdw_energy:          -32.539219
##########                      Grid_es_energy:           -0.855574
##########           Internal_energy_repulsive:           10.858683

@<TRIPOS>MOLECULE
ZINC000279974681
 42 45 1 0 0
SMALL
USER_CHARGES


@<TRIPOS>ATOM
      1 C1        -13.8755   -5.2762   56.5017 C.3     1  ZINC000279974681   -0.1400
      2 C2        -12.6019   -4.4283   56.4923 C.3     1  ZINC000279974681    0.0700
      3 H3        -11.7662   -5.0225   56.8620 H       1  ZINC000279974681    0.0600
      4 C4        -12.7963   -3.2025   57.3921 C.3     1  ZINC000279974681    0.1000
      5 N5        -11.6373   -2.3122   57.2202 N.am    1  ZINC000279974681   -0.6300
      6 C6        -10.9594   -1.8422   58.2860 C.2     1  ZINC000279974681    0.7100
      7 O7        -10.0043   -1.1075   58.1233 O.2     1  ZINC000279974681   -0.5600
      8 N8        -11.3402   -2.1865   59.5322 N.am    1  ZINC000279974681   -0.6700
      9 C9        -10.6349   -1.6975   60.6409 C.ar    1  ZINC000279974681    0.2000
     10 C10       -11.1398   -0.6294   61.3687 C.ar    1  ZINC000279974681   -0.1200
     11 C11       -10.4429   -0.1470   62.4642 C.ar    1  ZINC000279974681    0.0700
     12 C12        -9.2359   -0.7351   62.8335 C.ar    1  ZINC000279974681    0.0200
     13 C13        -8.7342   -1.8012   62.1042 C.ar    1  ZINC000279974681   -0.0700
     14 C14        -9.4332   -2.2861   61.0143 C.ar    1  ZINC000279974681   -0.0700
     15 Cl15       -8.8014   -3.6217   60.1031 Cl      1  ZINC000279974681   -0.0500
     16 O16        -8.7521   -0.0844   63.9328 O.3     1  ZINC000279974681   -0.3000
     17 C17        -9.4668    1.1644   63.9857 C.3     1  ZINC000279974681    0.2100
     18 O18       -10.7156    0.8716   63.3315 O.3     1  ZINC000279974681   -0.3000
     19 C19       -11.2400   -1.9506   55.8502 C.3     1  ZINC000279974681    0.0800
     20 C20       -11.1216   -3.2374   55.0256 C.3     1  ZINC000279974681    0.1100
     21 H21       -10.2798   -3.8268   55.3895 H       1  ZINC000279974681    0.0700
     22 C22       -10.8988   -2.8827   53.5541 C.3     1  ZINC000279974681   -0.1600
     23 C23       -11.8213   -3.5353   52.5225 C.3     1  ZINC000279974681   -0.1700
     24 C24       -11.9769   -2.0504   52.8570 C.3     1  ZINC000279974681   -0.1600
     25 O25       -12.3265   -3.9952   55.1580 O.3     1  ZINC000279974681   -0.3600
     26 H26       -13.7372   -6.1467   55.8604 H       1  ZINC000279974681    0.0700
     27 H27       -14.0859   -5.6046   57.5196 H       1  ZINC000279974681    0.0800
     28 H28       -14.7107   -4.6814   56.1319 H       1  ZINC000279974681    0.0700
     29 H29       -13.7078   -2.6778   57.1058 H       1  ZINC000279974681    0.0800
     30 H30       -12.8654   -3.5184   58.4330 H       1  ZINC000279974681    0.1100
     31 H31       -12.1022   -2.7725   59.6619 H       1  ZINC000279974681    0.4100
     32 H32       -12.0759   -0.1742   61.0807 H       1  ZINC000279974681    0.1800
     33 H33        -7.7980   -2.2571   62.3904 H       1  ZINC000279974681    0.1500
     34 H34        -9.6370    1.4647   65.0195 H       1  ZINC000279974681    0.1400
     35 H35        -8.9237    1.9396   63.4449 H       1  ZINC000279974681    0.0900
     36 H36       -11.9948   -1.2999   55.4087 H       1  ZINC000279974681    0.0900
     37 H37       -10.2786   -1.4375   55.8702 H       1  ZINC000279974681    0.0900
     38 H38        -9.8626   -2.7085   53.2641 H       1  ZINC000279974681    0.1100
     39 H39       -11.3921   -3.7906   51.5537 H       1  ZINC000279974681    0.1000
     40 H40       -12.5870   -4.2173   52.8922 H       1  ZINC000279974681    0.1000
     41 H41       -12.8449   -1.7556   53.4468 H       1  ZINC000279974681    0.1000
     42 H42       -11.6500   -1.3289   52.1083 H       1  ZINC000279974681    0.1000
@<TRIPOS>BOND
     1     1     2    1
     2     1    26    1
     3     1    27    1
     4     1    28    1
     5     2     3    1
     6     2    25    1
     7     2     4    1
     8     4     5    1
     9     4    29    1
    10     4    30    1
    11     5     6   am
    12     5    19    1
    13     6     7    2
    14     6     8   am
    15     8     9    1
    16     8    31    1
    17     9    14   ar
    18     9    10   ar
    19    10    11   ar
    20    10    32    1
    21    11    18    1
    22    11    12   ar
    23    12    13   ar
    24    12    16    1
    25    13    14   ar
    26    13    33    1
    27    14    15    1
    28    16    17    1
    29    17    18    1
    30    17    34    1
    31    17    35    1
    32    19    20    1
    33    19    36    1
    34    19    37    1
    35    20    21    1
    36    20    22    1
    37    20    25    1
    38    22    24    1
    39    22    23    1
    40    22    38    1
    41    23    24    1
    42    23    39    1
    43    23    40    1
    44    24    41    1
    45    24    42    1
@<TRIPOS>SUBSTRUCTURE
     1 ZINC000279974681        1 TEMP              0 ****  ****    0 ROOT


##########                                Name:    ZINC000066361645
##########                DOCK_Rotatable_Bonds:                   8
##########                         Heavy_Atoms:                  27
##########                    Molecular_Weight:             392.519
##########                DOCK_Rotatable_Bonds:                   8
##########                       Formal_Charge:           0.0100004
##########                     HBond_Acceptors:                   7
##########                        HBond_Donors:                   2
##########                         Heavy_Atoms:                  27
##########                          Grid_Score:          -33.393742
##########                     Grid_vdw_energy:          -31.225681
##########                      Grid_es_energy:           -2.168061
##########           Internal_energy_repulsive:            9.305857

@<TRIPOS>MOLECULE
ZINC000066361645
 55 57 1 0 0
SMALL
USER_CHARGES


@<TRIPOS>ATOM
      1 C1        -14.3806   -5.4893   56.8777 C.3     1  ZINC000066361645   -0.1400
      2 S2        -12.5686   -5.4654   56.9579 S.3     1  ZINC000066361645   -0.1100
      3 C3        -12.1453   -4.0845   55.9489 C.ar    1  ZINC000066361645   -0.1200
      4 C4        -12.5217   -4.0579   54.6144 C.ar    1  ZINC000066361645   -0.1100
      5 C5        -12.1896   -2.9707   53.8192 C.ar    1  ZINC000066361645    0.0500
      6 C6        -11.4802   -1.9055   54.3602 C.ar    1  ZINC000066361645    0.0700
      7 C7        -11.1011   -1.9308   55.6945 C.ar    1  ZINC000066361645   -0.1100
      8 C8        -11.4361   -3.0137   56.4922 C.ar    1  ZINC000066361645    0.1800
      9 N9        -11.0524   -3.0376   57.8415 N.am    1  ZINC000066361645   -0.6600
     10 C10       -11.5309   -2.1106   58.6948 C.2     1  ZINC000066361645    0.5100
     11 O11       -12.2934   -1.2554   58.2962 O.2     1  ZINC000066361645   -0.5000
     12 C12       -11.1187   -2.1363   60.1441 C.3     1  ZINC000066361645   -0.1500
     13 C13        -9.7492   -1.4716   60.2967 C.3     1  ZINC000066361645    0.1600
     14 H14        -9.0412   -1.9365   59.6108 H       1  ZINC000066361645    0.1000
     15 C15        -9.2554   -1.6451   61.7345 C.3     1  ZINC000066361645   -0.1600
     16 N16        -9.8622   -0.0439   59.9883 N.am    1  ZINC000066361645   -0.7200
     17 C17        -9.3630    0.4376   58.8326 C.2     1  ZINC000066361645    0.5300
     18 O18        -8.8213   -0.3114   58.0475 O.2     1  ZINC000066361645   -0.5400
     19 C19        -9.4777    1.9065   58.5163 C.3     1  ZINC000066361645   -0.1100
     20 C20        -8.2815    2.3402   57.6668 C.3     1  ZINC000066361645   -0.1100
     21 C21        -8.3980    3.8316   57.3456 C.3     1  ZINC000066361645   -0.1200
     22 C22        -9.6927    4.0869   56.5713 C.3     1  ZINC000066361645   -0.1200
     23 C23       -10.8890    3.6531   57.4207 C.3     1  ZINC000066361645   -0.1200
     24 C24       -10.7725    2.1617   57.7419 C.3     1  ZINC000066361645   -0.1000
     25 O25       -11.1526   -0.8265   53.5954 O.3     1  ZINC000066361645   -0.3000
     26 C26       -11.2213   -0.9989   52.1759 C.3     1  ZINC000066361645    0.0200
     27 C27       -12.5452   -1.6990   51.8406 C.3     1  ZINC000066361645    0.0200
     28 O28       -12.5647   -2.9644   52.5099 O.3     1  ZINC000066361645   -0.3100
     29 H29       -14.7740   -4.5500   57.2666 H       1  ZINC000066361645    0.0900
     30 H30       -14.6969   -5.6146   55.8421 H       1  ZINC000066361645    0.0900
     31 H31       -14.7600   -6.3176   57.4761 H       1  ZINC000066361645    0.1100
     32 H32       -13.0741   -4.8851   54.1935 H       1  ZINC000066361645    0.1400
     33 H33       -10.5474   -1.1036   56.1134 H       1  ZINC000066361645    0.1600
     34 H34       -10.4427   -3.7213   58.1603 H       1  ZINC000066361645    0.4100
     35 H35       -11.8535   -1.5955   60.7405 H       1  ZINC000066361645    0.1000
     36 H36       -11.0615   -3.1693   60.4873 H       1  ZINC000066361645    0.1200
     37 H37        -9.9635   -1.1801   62.4204 H       1  ZINC000066361645    0.0600
     38 H38        -9.1713   -2.7073   61.9639 H       1  ZINC000066361645    0.0700
     39 H39        -8.2797   -1.1715   61.8432 H       1  ZINC000066361645    0.0700
     40 H40       -10.2965    0.5550   60.6157 H       1  ZINC000066361645    0.4000
     41 H41        -9.4907    2.4781   59.4442 H       1  ZINC000066361645    0.1000
     42 H42        -7.3591    2.1584   58.2184 H       1  ZINC000066361645    0.0600
     43 H43        -8.2685    1.7687   56.7387 H       1  ZINC000066361645    0.0700
     44 H44        -8.4110    4.4032   58.2736 H       1  ZINC000066361645    0.0600
     45 H45        -7.5458    4.1406   56.7404 H       1  ZINC000066361645    0.0700
     46 H46        -9.7757    5.1494   56.3425 H       1  ZINC000066361645    0.0600
     47 H47        -9.6798    3.5153   55.6433 H       1  ZINC000066361645    0.0600
     48 H48       -10.9019    4.2248   58.3488 H       1  ZINC000066361645    0.0600
     49 H49       -11.8114    3.8350   56.8692 H       1  ZINC000066361645    0.0700
     50 H50       -10.7595    1.5902   56.8139 H       1  ZINC000066361645    0.0700
     51 H51       -11.6247    1.8528   58.3471 H       1  ZINC000066361645    0.0700
     52 H52       -11.1853   -0.0263   51.6852 H       1  ZINC000066361645    0.1300
     53 H53       -10.3855   -1.6123   51.8392 H       1  ZINC000066361645    0.0800
     54 H54       -13.3808   -1.0889   52.1833 H       1  ZINC000066361645    0.0800
     55 H55       -12.6179   -1.8516   50.7637 H       1  ZINC000066361645    0.1200
@<TRIPOS>BOND
     1     1     2    1
     2     1    29    1
     3     1    30    1
     4     1    31    1
     5     2     3    1
     6     3     8   ar
     7     3     4   ar
     8     4     5   ar
     9     4    32    1
    10     5    28    1
    11     5     6   ar
    12     6     7   ar
    13     6    25    1
    14     7     8   ar
    15     7    33    1
    16     8     9    1
    17     9    10   am
    18     9    34    1
    19    10    11    2
    20    10    12    1
    21    12    13    1
    22    12    35    1
    23    12    36    1
    24    13    14    1
    25    13    15    1
    26    13    16    1
    27    15    37    1
    28    15    38    1
    29    15    39    1
    30    16    17   am
    31    16    40    1
    32    17    18    2
    33    17    19    1
    34    19    24    1
    35    19    20    1
    36    19    41    1
    37    20    21    1
    38    20    42    1
    39    20    43    1
    40    21    22    1
    41    21    44    1
    42    21    45    1
    43    22    23    1
    44    22    46    1
    45    22    47    1
    46    23    24    1
    47    23    48    1
    48    23    49    1
    49    24    50    1
    50    24    51    1
    51    25    26    1
    52    26    27    1
    53    26    52    1
    54    26    53    1
    55    27    28    1
    56    27    54    1
    57    27    55    1
@<TRIPOS>SUBSTRUCTURE
     1 ZINC000066361645        1 TEMP              0 ****  ****    0 ROOT


##########                                Name:    ZINC001345266033
##########                DOCK_Rotatable_Bonds:                   4
##########                         Heavy_Atoms:                  29
##########                    Molecular_Weight:               389.5
##########                DOCK_Rotatable_Bonds:                   4
##########                       Formal_Charge:          -0.0100001
##########                     HBond_Acceptors:                   6
##########                        HBond_Donors:                   0
##########                         Heavy_Atoms:                  29
##########                          Grid_Score:          -33.360928
##########                     Grid_vdw_energy:          -32.755665
##########                      Grid_es_energy:           -0.605263
##########           Internal_energy_repulsive:           11.018875

@<TRIPOS>MOLECULE
ZINC001345266033
 56 61 1 0 0
SMALL
USER_CHARGES


@<TRIPOS>ATOM
      1 C1        -10.3424    2.6265   63.0404 C.ar    1  ZINC001345266033   -0.1100
      2 C2        -10.7749    2.5084   61.7220 C.ar    1  ZINC001345266033   -0.0900
      3 C3        -10.5135    1.3830   60.9959 C.ar    1  ZINC001345266033   -0.1100
      4 C4         -9.8013    0.3358   61.5854 C.ar    1  ZINC001345266033    0.0000
      5 C5         -9.3583    0.4520   62.9281 C.ar    1  ZINC001345266033   -0.1100
      6 C6         -9.6455    1.6239   63.6451 C.ar    1  ZINC001345266033   -0.0900
      7 C7         -8.6440   -0.6153   63.4959 C.ar    1  ZINC001345266033    0.1700
      8 N8         -8.3892   -1.6992   62.8035 N.ar    1  ZINC001345266033   -0.4800
      9 C9         -8.7709   -1.8756   61.5495 C.ar    1  ZINC001345266033    0.0900
     10 C10        -9.4847   -0.8985   60.8679 C.ar    1  ZINC001345266033   -0.0700
     11 C11        -9.9088   -1.0989   59.4692 C.2     1  ZINC001345266033    0.2300
     12 N12        -9.2201   -0.7933   58.3926 N.2     1  ZINC001345266033   -0.2600
     13 N13        -9.8907   -1.1039   57.3412 N.2     1  ZINC001345266033   -0.3000
     14 C14       -11.0475   -1.6264   57.6813 C.2     1  ZINC001345266033    0.3600
     15 N15       -12.0298   -2.0772   56.8173 N.3     1  ZINC001345266033   -0.4600
     16 C16       -11.9703   -1.3644   55.5354 C.3     1  ZINC001345266033    0.0600
     17 C17       -13.1921   -1.7187   54.6855 C.3     1  ZINC001345266033   -0.1100
     18 C18       -13.1752   -3.2212   54.3799 C.3     1  ZINC001345266033   -0.0800
     19 C19       -13.0715   -3.9857   55.7039 C.3     1  ZINC001345266033   -0.1300
     20 C20       -14.3705   -4.4530   56.3585 C.3     1  ZINC001345266033   -0.1600
     21 C21       -13.4352   -5.4695   55.6996 C.3     1  ZINC001345266033   -0.1700
     22 C22       -11.9329   -3.5314   56.6219 C.3     1  ZINC001345266033    0.1100
     23 N23       -11.0979   -1.6469   59.0450 N.pl3   1  ZINC001345266033   -0.4600
     24 C24       -12.1933   -2.1415   59.8828 C.3     1  ZINC001345266033    0.1000
     25 C25       -13.0150   -0.9583   60.3985 C.3     1  ZINC001345266033   -0.1400
     26 H26       -12.3625   -0.2060   60.8415 H       1  ZINC001345266033    0.1000
     27 C27       -14.0671   -1.4372   61.4283 C.3     1  ZINC001345266033   -0.1500
     28 C28       -15.3055   -0.5867   61.0468 C.3     1  ZINC001345266033    0.0500
     29 O29       -15.2371   -0.5197   59.6062 O.3     1  ZINC001345266033   -0.3700
     30 C30       -13.8502   -0.3440   59.2585 C.3     1  ZINC001345266033    0.0300
     31 H31       -10.5591    3.5298   63.5914 H       1  ZINC001345266033    0.1300
     32 H32       -11.3254    3.3189   61.2677 H       1  ZINC001345266033    0.1300
     33 H33       -10.8546    1.3025   59.9743 H       1  ZINC001345266033    0.1600
     34 H34        -9.3162    1.7303   64.6681 H       1  ZINC001345266033    0.1400
     35 H35        -8.2997   -0.5423   64.5170 H       1  ZINC001345266033    0.1700
     36 H36        -8.5222   -2.7978   61.0453 H       1  ZINC001345266033    0.1700
     37 H37       -11.9561   -0.2900   55.7189 H       1  ZINC001345266033    0.0700
     38 H38       -11.0634   -1.6515   55.0032 H       1  ZINC001345266033    0.0500
     39 H39       -14.1011   -1.4686   55.2324 H       1  ZINC001345266033    0.0800
     40 H40       -13.1616   -1.1569   53.7519 H       1  ZINC001345266033    0.0800
     41 H41       -14.0952   -3.5009   53.8667 H       1  ZINC001345266033    0.0700
     42 H42       -12.3159   -3.4576   53.7524 H       1  ZINC001345266033    0.0700
     43 H43       -14.4172   -4.4440   57.4475 H       1  ZINC001345266033    0.0900
     44 H44       -15.3042   -4.2218   55.8456 H       1  ZINC001345266033    0.0900
     45 H45       -13.7534   -5.9069   54.7533 H       1  ZINC001345266033    0.1000
     46 H46       -12.8665   -6.1290   56.3551 H       1  ZINC001345266033    0.1000
     47 H47       -10.9747   -3.7751   56.1631 H       1  ZINC001345266033    0.0600
     48 H48       -12.0172   -4.0354   57.5848 H       1  ZINC001345266033    0.0800
     49 H49       -12.8330   -2.7988   59.2939 H       1  ZINC001345266033    0.1100
     50 H50       -11.7834   -2.6948   60.7276 H       1  ZINC001345266033    0.1100
     51 H51       -14.2734   -2.5007   61.3078 H       1  ZINC001345266033    0.0800
     52 H52       -13.7432   -1.2181   62.4458 H       1  ZINC001345266033    0.0900
     53 H53       -16.2234   -1.0810   61.3650 H       1  ZINC001345266033    0.1000
     54 H54       -15.2349    0.4104   61.4812 H       1  ZINC001345266033    0.0600
     55 H55       -13.6245    0.7178   59.1603 H       1  ZINC001345266033    0.0600
     56 H56       -13.6347   -0.8590   58.3223 H       1  ZINC001345266033    0.0900
@<TRIPOS>BOND
     1     1     6   ar
     2     1     2   ar
     3     1    31    1
     4     2     3   ar
     5     2    32    1
     6     3     4   ar
     7     3    33    1
     8     4    10   ar
     9     4     5   ar
    10     5     6   ar
    11     5     7   ar
    12     6    34    1
    13     7     8   ar
    14     7    35    1
    15     8     9   ar
    16     9    10   ar
    17     9    36    1
    18    10    11    1
    19    11    23    1
    20    11    12    2
    21    12    13    1
    22    13    14    2
    23    14    15    1
    24    14    23    1
    25    15    22    1
    26    15    16    1
    27    16    17    1
    28    16    37    1
    29    16    38    1
    30    17    18    1
    31    17    39    1
    32    17    40    1
    33    18    19    1
    34    18    41    1
    35    18    42    1
    36    19    21    1
    37    19    20    1
    38    19    22    1
    39    20    21    1
    40    20    43    1
    41    20    44    1
    42    21    45    1
    43    21    46    1
    44    22    47    1
    45    22    48    1
    46    23    24    1
    47    24    25    1
    48    24    49    1
    49    24    50    1
    50    25    26    1
    51    25    30    1
    52    25    27    1
    53    27    28    1
    54    27    51    1
    55    27    52    1
    56    28    29    1
    57    28    53    1
    58    28    54    1
    59    29    30    1
    60    30    55    1
    61    30    56    1
@<TRIPOS>SUBSTRUCTURE
     1 ZINC001345266033        1 TEMP              0 ****  ****    0 ROOT


##########                                Name:    ZINC000915315870
##########                DOCK_Rotatable_Bonds:                   4
##########                         Heavy_Atoms:                  24
##########                    Molecular_Weight:             357.381
##########                DOCK_Rotatable_Bonds:                   4
##########                       Formal_Charge:           0.0300002
##########                     HBond_Acceptors:                   9
##########                        HBond_Donors:                   1
##########                         Heavy_Atoms:                  24
##########                          Grid_Score:          -33.336334
##########                     Grid_vdw_energy:          -31.911592
##########                      Grid_es_energy:           -1.424741
##########           Internal_energy_repulsive:           36.357067

@<TRIPOS>MOLECULE
ZINC000915315870
 41 43 1 0 0
SMALL
USER_CHARGES


@<TRIPOS>ATOM
      1 C1        -14.5041   -4.7924   55.1564 C.3     1  ZINC000915315870    0.0300
      2 O2        -13.9485   -3.4951   55.3806 O.3     1  ZINC000915315870   -0.3200
      3 C3        -12.9589   -3.3992   56.3088 C.ar    1  ZINC000915315870    0.0800
      4 C4        -12.4065   -2.1620   56.6115 C.ar    1  ZINC000915315870    0.0900
      5 F5        -12.8517   -1.0510   55.9847 F       1  ZINC000915315870   -0.1100
      6 C6        -11.4000   -2.0678   57.5563 C.ar    1  ZINC000915315870   -0.0500
      7 C7        -10.9438   -3.2041   58.1982 C.ar    1  ZINC000915315870   -0.6300
      8 S8         -9.6615   -3.0801   59.4002 S.o2    1  ZINC000915315870    2.7000
      9 O9         -9.1651   -4.3973   59.5948 O.2     1  ZINC000915315870   -0.9400
     10 O10        -8.8406   -1.9913   59.0003 O.2     1  ZINC000915315870   -0.9400
     11 N11       -10.3700   -2.6317   60.8283 N.am    1  ZINC000915315870   -1.1100
     12 C12       -11.1081   -1.3692   60.9151 C.3     1  ZINC000915315870    0.2400
     13 H13       -10.8718   -0.7451   60.0533 H       1  ZINC000915315870    0.0900
     14 C14       -12.6153   -1.6523   60.9513 C.3     1  ZINC000915315870   -0.1400
     15 C15       -13.3743   -0.3661   61.2851 C.3     1  ZINC000915315870   -0.1100
     16 C16       -13.1519   -0.0005   62.7579 C.3     1  ZINC000915315870   -0.0400
     17 C17       -11.6675   -0.0239   63.0307 C.2     1  ZINC000915315870    0.0900
     18 N18       -11.0238    0.4968   64.0347 N.2     1  ZINC000915315870   -0.2900
     19 N19        -9.6575    0.2265   63.8648 N.pl3   1  ZINC000915315870   -0.3800
     20 C20        -8.5799    0.6343   64.7696 C.3     1  ZINC000915315870    0.1000
     21 C21        -9.5103   -0.4772   62.7197 C.2     1  ZINC000915315870    0.0800
     22 C22       -10.7330   -0.6465   62.1853 C.2     1  ZINC000915315870   -0.2500
     23 C23       -11.4922   -4.4376   57.8994 C.ar    1  ZINC000915315870   -0.0500
     24 C24       -12.5030   -4.5377   56.9597 C.ar    1  ZINC000915315870    0.1000
     25 F25       -13.0384   -5.7433   56.6681 F       1  ZINC000915315870   -0.1100
     26 H26       -15.2808   -4.7282   54.3943 H       1  ZINC000915315870    0.1100
     27 H27       -13.7198   -5.4702   54.8194 H       1  ZINC000915315870    0.0600
     28 H28       -14.9354   -5.1683   56.0841 H       1  ZINC000915315870    0.0500
     29 H29       -10.9698   -1.1056   57.7922 H       1  ZINC000915315870    0.1700
     30 H30       -10.2963   -3.2049   61.6073 H       1  ZINC000915315870    0.4200
     31 H31       -12.9383   -2.0218   59.9781 H       1  ZINC000915315870    0.0900
     32 H32       -12.8247   -2.4047   61.7117 H       1  ZINC000915315870    0.0800
     33 H33       -13.0116    0.4435   60.6519 H       1  ZINC000915315870    0.0700
     34 H34       -14.4388   -0.5165   61.1058 H       1  ZINC000915315870    0.0800
     35 H35       -13.5459    0.9969   62.9527 H       1  ZINC000915315870    0.0800
     36 H36       -13.6547   -0.7264   63.3970 H       1  ZINC000915315870    0.0900
     37 H37        -8.4213   -0.1414   65.5186 H       1  ZINC000915315870    0.0800
     38 H38        -7.6628    0.7816   64.1992 H       1  ZINC000915315870    0.0900
     39 H39        -8.8539    1.5662   65.2641 H       1  ZINC000915315870    0.0900
     40 H40        -8.5792   -0.8380   62.3082 H       1  ZINC000915315870    0.1700
     41 H41       -11.1341   -5.3234   58.4027 H       1  ZINC000915315870    0.1700
@<TRIPOS>BOND
     1     1     2    1
     2     1    26    1
     3     1    27    1
     4     1    28    1
     5     2     3    1
     6     3    24   ar
     7     3     4   ar
     8     4     5    1
     9     4     6   ar
    10     6     7   ar
    11     6    29    1
    12     7     8    1
    13     7    23   ar
    14     8     9    2
    15     8    10    2
    16     8    11   am
    17    11    12    1
    18    11    30    1
    19    12    13    1
    20    12    22    1
    21    12    14    1
    22    14    15    1
    23    14    31    1
    24    14    32    1
    25    15    16    1
    26    15    33    1
    27    15    34    1
    28    16    17    1
    29    16    35    1
    30    16    36    1
    31    17    22    1
    32    17    18    2
    33    18    19    1
    34    19    20    1
    35    19    21    1
    36    20    37    1
    37    20    38    1
    38    20    39    1
    39    21    22    2
    40    21    40    1
    41    23    24   ar
    42    23    41    1
    43    24    25    1
@<TRIPOS>SUBSTRUCTURE
     1 ZINC000915315870        1 TEMP              0 ****  ****    0 ROOT


##########                                Name:    ZINC000643274279
##########                DOCK_Rotatable_Bonds:                   6
##########                         Heavy_Atoms:                  29
##########                    Molecular_Weight:             392.454
##########                DOCK_Rotatable_Bonds:                   6
##########                       Formal_Charge:         -0.00999939
##########                     HBond_Acceptors:                   6
##########                        HBond_Donors:                   2
##########                         Heavy_Atoms:                  29
##########                          Grid_Score:          -33.326477
##########                     Grid_vdw_energy:          -32.006794
##########                      Grid_es_energy:           -1.319682
##########           Internal_energy_repulsive:           10.553421

@<TRIPOS>MOLECULE
ZINC000643274279
 53 56 1 0 0
SMALL
USER_CHARGES


@<TRIPOS>ATOM
      1 O1        -13.7326   -1.3922   58.2578 O.2     1  ZINC000643274279   -0.4900
      2 C2        -13.8775   -2.5527   58.5826 C.2     1  ZINC000643274279    0.5100
      3 N3        -13.7597   -2.9101   59.8768 N.am    1  ZINC000643274279   -0.6400
      4 C4        -13.4649   -1.9453   60.8440 C.ar    1  ZINC000643274279    0.1300
      5 C5        -12.1409   -1.6599   61.1583 C.ar    1  ZINC000643274279   -0.1000
      6 C6        -11.8393   -0.7144   62.1232 C.ar    1  ZINC000643274279   -0.1000
      7 C7        -12.8556   -0.0536   62.7773 C.ar    1  ZINC000643274279   -0.0600
      8 C8        -12.5309    0.9328   63.8853 C.3     1  ZINC000643274279   -0.0900
      9 C9        -12.9007    2.3398   63.4298 C.3     1  ZINC000643274279   -0.1200
     10 C10       -14.3552    2.6613   63.7388 C.3     1  ZINC000643274279   -0.1100
     11 C11       -15.3469    1.9254   62.8737 C.3     1  ZINC000643274279   -0.1600
     12 C12       -15.2597    0.4340   63.1336 C.2     1  ZINC000643274279    0.4100
     13 O13       -16.0436   -0.1225   63.8725 O.2     1  ZINC000643274279   -0.4400
     14 C14       -14.1873   -0.3136   62.4542 C.ar    1  ZINC000643274279   -0.1300
     15 C15       -14.4939   -1.2701   61.4844 C.ar    1  ZINC000643274279   -0.1000
     16 C16       -14.1925   -3.5838   57.5489 C.2     1  ZINC000643274279    0.5200
     17 O17       -15.1539   -4.3108   57.6903 O.2     1  ZINC000643274279   -0.5000
     18 N18       -13.4092   -3.7066   56.4591 N.am    1  ZINC000643274279   -0.5800
     19 C19       -13.6036   -4.6767   55.3662 C.3     1  ZINC000643274279    0.0900
     20 C20       -12.8999   -4.0405   54.1415 C.3     1  ZINC000643274279   -0.1400
     21 C21       -11.6663   -3.3718   54.8036 C.3     1  ZINC000643274279   -0.1200
     22 C22       -12.2230   -2.8910   56.1602 C.3     1  ZINC000643274279    0.1800
     23 H23       -12.4975   -1.8381   56.0961 H       1  ZINC000643274279    0.0900
     24 C24       -11.1872   -3.0857   57.2373 C.ar    1  ZINC000643274279   -0.1000
     25 C25       -11.0143   -4.3315   57.8115 C.ar    1  ZINC000643274279   -0.0900
     26 C26       -10.0654   -4.5126   58.7991 C.ar    1  ZINC000643274279   -0.1400
     27 C27        -9.2852   -3.4432   59.2141 C.ar    1  ZINC000643274279    0.1100
     28 O28        -8.3508   -3.6189   60.1851 O.3     1  ZINC000643274279   -0.5000
     29 C29        -9.4603   -2.1943   58.6361 C.ar    1  ZINC000643274279   -0.1400
     30 C30       -10.4071   -2.0195   57.6455 C.ar    1  ZINC000643274279   -0.0900
     31 H31       -13.8794   -3.8368   60.1368 H       1  ZINC000643274279    0.4200
     32 H32       -11.3435   -2.1790   60.6471 H       1  ZINC000643274279    0.1400
     33 H33       -10.8094   -0.4955   62.3631 H       1  ZINC000643274279    0.1400
     34 H34       -13.1012    0.6778   64.7785 H       1  ZINC000643274279    0.0800
     35 H35       -11.4649    0.8910   64.1090 H       1  ZINC000643274279    0.0800
     36 H36       -12.2605    3.0593   63.9404 H       1  ZINC000643274279    0.0800
     37 H37       -12.7385    2.4204   62.3549 H       1  ZINC000643274279    0.0700
     38 H38       -14.5517    2.4109   64.7813 H       1  ZINC000643274279    0.0700
     39 H39       -14.5088    3.7325   63.6081 H       1  ZINC000643274279    0.0800
     40 H40       -16.3542    2.2738   63.1020 H       1  ZINC000643274279    0.0900
     41 H41       -15.1275    2.1229   61.8243 H       1  ZINC000643274279    0.0900
     42 H42       -15.5231   -1.4852   61.2377 H       1  ZINC000643274279    0.1300
     43 H43       -13.1388   -5.6300   55.6179 H       1  ZINC000643274279    0.0800
     44 H44       -14.6661   -4.8132   55.1646 H       1  ZINC000643274279    0.1000
     45 H45       -12.5936   -4.8042   53.4266 H       1  ZINC000643274279    0.0900
     46 H46       -13.5394   -3.2968   53.6662 H       1  ZINC000643274279    0.0800
     47 H47       -10.8650   -4.0968   54.9465 H       1  ZINC000643274279    0.0800
     48 H48       -11.3209   -2.5258   54.2094 H       1  ZINC000643274279    0.0900
     49 H49       -11.6219   -5.1638   57.4881 H       1  ZINC000643274279    0.1200
     50 H50        -9.9313   -5.4858   59.2479 H       1  ZINC000643274279    0.1300
     51 H51        -7.8816   -2.8097   60.4305 H       1  ZINC000643274279    0.3900
     52 H52        -8.8544   -1.3601   58.9578 H       1  ZINC000643274279    0.1300
     53 H53       -10.5436   -1.0476   57.1950 H       1  ZINC000643274279    0.1300
@<TRIPOS>BOND
     1     1     2    2
     2     2     3   am
     3     2    16    1
     4     3     4    1
     5     3    31    1
     6     4    15   ar
     7     4     5   ar
     8     5     6   ar
     9     5    32    1
    10     6     7   ar
    11     6    33    1
    12     7    14   ar
    13     7     8    1
    14     8     9    1
    15     8    34    1
    16     8    35    1
    17     9    10    1
    18     9    36    1
    19     9    37    1
    20    10    11    1
    21    10    38    1
    22    10    39    1
    23    11    12    1
    24    11    40    1
    25    11    41    1
    26    12    13    2
    27    12    14    1
    28    14    15   ar
    29    15    42    1
    30    16    17    2
    31    16    18   am
    32    18    22    1
    33    18    19    1
    34    19    20    1
    35    19    43    1
    36    19    44    1
    37    20    21    1
    38    20    45    1
    39    20    46    1
    40    21    22    1
    41    21    47    1
    42    21    48    1
    43    22    23    1
    44    22    24    1
    45    24    30   ar
    46    24    25   ar
    47    25    26   ar
    48    25    49    1
    49    26    27   ar
    50    26    50    1
    51    27    28    1
    52    27    29   ar
    53    28    51    1
    54    29    30   ar
    55    29    52    1
    56    30    53    1
@<TRIPOS>SUBSTRUCTURE
     1 ZINC000643274279        1 TEMP              0 ****  ****    0 ROOT


##########                                Name:    ZINC000564088286
##########                DOCK_Rotatable_Bonds:                   6
##########                         Heavy_Atoms:                  25
##########                    Molecular_Weight:             398.934
##########                DOCK_Rotatable_Bonds:                   6
##########                       Formal_Charge:               -0.05
##########                     HBond_Acceptors:                   8
##########                        HBond_Donors:                   1
##########                         Heavy_Atoms:                  25
##########                          Grid_Score:          -33.324005
##########                     Grid_vdw_energy:          -32.749683
##########                      Grid_es_energy:           -0.574321
##########           Internal_energy_repulsive:           10.403007

@<TRIPOS>MOLECULE
ZINC000564088286
 44 46 1 0 0
SMALL
USER_CHARGES


@<TRIPOS>ATOM
      1 C1        -13.7833   -0.2761   50.3822 C.3     1  ZINC000564088286   -0.1600
      2 C2        -12.9882   -0.6879   51.6228 C.3     1  ZINC000564088286    0.1100
      3 N3        -12.6111   -2.0994   51.5147 N.am    1  ZINC000564088286   -1.1200
      4 S4        -11.2311   -2.6462   52.2489 S.o2    1  ZINC000564088286    2.7000
      5 O5        -11.2258   -4.0585   52.0919 O.2     1  ZINC000564088286   -0.9600
      6 O6        -10.1762   -1.8097   51.7942 O.2     1  ZINC000564088286   -0.9600
      7 C7        -11.4015   -2.3382   53.9753 C.ar    1  ZINC000564088286   -0.6800
      8 C8        -11.7869   -3.3586   54.8247 C.ar    1  ZINC000564088286   -0.0200
      9 C9        -11.9206   -3.1170   56.1791 C.ar    1  ZINC000564088286   -0.1300
     10 C10       -11.6686   -1.8551   56.6844 C.ar    1  ZINC000564088286   -0.0100
     11 C11       -11.8150   -1.5916   58.1609 C.3     1  ZINC000564088286   -0.1100
     12 C12       -10.6490   -2.1990   58.8975 C.2     1  ZINC000564088286    0.5200
     13 O13        -9.7235   -2.6787   58.2776 O.2     1  ZINC000564088286   -0.5200
     14 N14       -10.6346   -2.2091   60.2451 N.am    1  ZINC000564088286   -0.6200
     15 C15        -9.5067   -2.7967   60.9836 C.3     1  ZINC000564088286    0.1200
     16 C16        -8.8005   -1.6831   61.7630 C.3     1  ZINC000564088286   -0.0700
     17 C17        -9.8403   -0.8269   62.4543 C.2     1  ZINC000564088286   -0.1600
     18 C18       -11.1468   -0.7856   62.1327 C.2     1  ZINC000564088286   -0.1200
     19 C19       -11.8909    0.0916   62.9162 C.2     1  ZINC000564088286   -0.1100
     20 C20       -11.2102    0.7422   63.8561 C.2     1  ZINC000564088286   -0.1500
     21 Cl21      -11.8875    1.8884   64.9701 Cl      1  ZINC000564088286   -0.0100
     22 S22        -9.5207    0.2631   63.7975 S.3     1  ZINC000564088286    0.1600
     23 C23       -11.7429   -1.6275   61.0156 C.3     1  ZINC000564088286    0.1700
     24 C24       -11.2820   -0.8352   55.8351 C.ar    1  ZINC000564088286   -0.1300
     25 C25       -11.1445   -1.0777   54.4812 C.ar    1  ZINC000564088286   -0.0200
     26 H26       -13.1700   -0.4212   49.4928 H       1  ZINC000564088286    0.0600
     27 H27       -14.6824   -0.8876   50.3074 H       1  ZINC000564088286    0.0600
     28 H28       -14.0639    0.7741   50.4625 H       1  ZINC000564088286    0.0700
     29 H29       -12.0890   -0.0763   51.6976 H       1  ZINC000564088286    0.0800
     30 H30       -13.6014   -0.5427   52.5121 H       1  ZINC000564088286    0.0700
     31 H31       -13.1697   -2.7137   51.0132 H       1  ZINC000564088286    0.4200
     32 H32       -11.9836   -4.3444   54.4300 H       1  ZINC000564088286    0.1400
     33 H33       -12.2223   -3.9140   56.8426 H       1  ZINC000564088286    0.1300
     34 H34       -11.8361   -0.5163   58.3377 H       1  ZINC000564088286    0.1100
     35 H35       -12.7430   -2.0371   58.5192 H       1  ZINC000564088286    0.1100
     36 H36        -9.8769   -3.5512   61.6776 H       1  ZINC000564088286    0.0800
     37 H37        -8.8077   -3.2525   60.2821 H       1  ZINC000564088286    0.1100
     38 H38        -8.1374   -2.1235   62.5077 H       1  ZINC000564088286    0.0900
     39 H39        -8.2205   -1.0679   61.0752 H       1  ZINC000564088286    0.0900
     40 H40       -12.9514    0.2351   62.7706 H       1  ZINC000564088286    0.1500
     41 H41       -12.3567   -1.0010   60.3684 H       1  ZINC000564088286    0.1000
     42 H42       -12.3498   -2.4274   61.4397 H       1  ZINC000564088286    0.0900
     43 H43       -11.0849    0.1505   56.2299 H       1  ZINC000564088286    0.1300
     44 H44       -10.8425   -0.2809   53.8178 H       1  ZINC000564088286    0.1400
@<TRIPOS>BOND
     1     1     2    1
     2     1    26    1
     3     1    27    1
     4     1    28    1
     5     2     3    1
     6     2    29    1
     7     2    30    1
     8     3     4   am
     9     3    31    1
    10     4     5    2
    11     4     6    2
    12     4     7    1
    13     7    25   ar
    14     7     8   ar
    15     8     9   ar
    16     8    32    1
    17     9    10   ar
    18     9    33    1
    19    10    11    1
    20    10    24   ar
    21    11    12    1
    22    11    34    1
    23    11    35    1
    24    12    13    2
    25    12    14   am
    26    14    23    1
    27    14    15    1
    28    15    16    1
    29    15    36    1
    30    15    37    1
    31    16    17    1
    32    16    38    1
    33    16    39    1
    34    17    22    1
    35    17    18    2
    36    18    19    1
    37    18    23    1
    38    19    20    2
    39    19    40    1
    40    20    21    1
    41    20    22    1
    42    23    41    1
    43    23    42    1
    44    24    25   ar
    45    24    43    1
    46    25    44    1
@<TRIPOS>SUBSTRUCTURE
     1 ZINC000564088286        1 TEMP              0 ****  ****    0 ROOT


##########                                Name:    ZINC000409064708
##########                DOCK_Rotatable_Bonds:                   8
##########                         Heavy_Atoms:                  29
##########                    Molecular_Weight:             415.442
##########                DOCK_Rotatable_Bonds:                   8
##########                       Formal_Charge:                0.03
##########                     HBond_Acceptors:                   8
##########                        HBond_Donors:                   0
##########                         Heavy_Atoms:                  29
##########                          Grid_Score:          -33.318829
##########                     Grid_vdw_energy:          -32.780163
##########                      Grid_es_energy:           -0.538667
##########           Internal_energy_repulsive:           18.255713

@<TRIPOS>MOLECULE
ZINC000409064708
 47 49 1 0 0
SMALL
USER_CHARGES


@<TRIPOS>ATOM
      1 C1        -13.3442   -0.1611   51.0511 C.3     1  ZINC000409064708    0.0400
      2 O2        -12.4715   -1.1781   51.6102 O.3     1  ZINC000409064708   -0.3500
      3 C3        -12.7078   -1.5546   52.8767 C.2     1  ZINC000409064708    0.4600
      4 O4        -13.5507   -0.9856   53.5290 O.2     1  ZINC000409064708   -0.4900
      5 C5        -11.9218   -2.6875   53.4850 C.3     1  ZINC000409064708    0.1400
      6 H6        -12.5541   -3.5727   53.5536 H       1  ZINC000409064708    0.1500
      7 C7        -10.7073   -2.9948   52.6070 C.3     1  ZINC000409064708   -0.1600
      8 N8        -11.4710   -2.3045   54.8254 N.am    1  ZINC000409064708   -0.5600
      9 C9        -10.8235   -1.1489   55.0139 C.2     1  ZINC000409064708    0.5400
     10 O10       -10.5455   -0.3268   54.1617 O.2     1  ZINC000409064708   -0.4200
     11 S11       -10.4493   -1.0446   56.7431 S.3     1  ZINC000409064708   -0.0100
     12 C12       -11.2009   -2.6016   57.1446 C.2     1  ZINC000409064708   -0.2400
     13 C13       -11.2919   -3.1956   58.3614 C.2     1  ZINC000409064708    0.0900
     14 C14       -10.7246   -2.5362   59.5445 C.ar    1  ZINC000409064708   -0.1400
     15 C15        -9.5808   -3.0596   60.1599 C.ar    1  ZINC000409064708    0.0000
     16 C16        -9.0533   -2.4374   61.2689 C.ar    1  ZINC000409064708   -0.1600
     17 C17        -9.6543   -1.2919   61.7782 C.ar    1  ZINC000409064708    0.1600
     18 O18        -9.1298   -0.6823   62.8720 O.3     1  ZINC000409064708   -0.3000
     19 C19        -9.7685    0.5168   63.3152 C.3     1  ZINC000409064708    0.1000
     20 C20        -9.0288    1.0692   64.5063 C.ar    1  ZINC000409064708   -0.0700
     21 C21        -9.7110    1.7849   65.4721 C.ar    1  ZINC000409064708   -0.1000
     22 C22        -9.0337    2.2924   66.5655 C.ar    1  ZINC000409064708   -0.0900
     23 C23        -7.6737    2.0844   66.6938 C.ar    1  ZINC000409064708   -0.1400
     24 C24        -6.9892    1.3671   65.7271 C.ar    1  ZINC000409064708    0.1000
     25 F25        -5.6594    1.1632   65.8514 F       1  ZINC000409064708   -0.1400
     26 C26        -7.6694    0.8550   64.6354 C.ar    1  ZINC000409064708   -0.1300
     27 C27       -10.7899   -0.7681   61.1713 C.ar    1  ZINC000409064708   -0.2200
     28 C28       -11.3222   -1.3786   60.0581 C.ar    1  ZINC000409064708   -0.0400
     29 C29       -11.7060   -3.0959   55.8586 C.2     1  ZINC000409064708    0.5600
     30 O30       -12.2910   -4.1576   55.7500 O.2     1  ZINC000409064708   -0.4600
     31 H31       -14.3736   -0.5193   51.0629 H       1  ZINC000409064708    0.0700
     32 H32       -13.2694    0.7490   51.6462 H       1  ZINC000409064708    0.0700
     33 H33       -13.0448    0.0503   50.0246 H       1  ZINC000409064708    0.1100
     34 H34       -11.0427   -3.2798   51.6097 H       1  ZINC000409064708    0.1000
     35 H35       -10.0750   -2.1096   52.5384 H       1  ZINC000409064708    0.0800
     36 H36       -10.1388   -3.8141   53.0470 H       1  ZINC000409064708    0.0800
     37 H37       -11.7815   -4.1533   58.4596 H       1  ZINC000409064708    0.1600
     38 H38        -9.1136   -3.9498   59.7656 H       1  ZINC000409064708    0.1300
     39 H39        -8.1711   -2.8400   61.7443 H       1  ZINC000409064708    0.1400
     40 H40        -9.7609    1.2514   62.5100 H       1  ZINC000409064708    0.0800
     41 H41       -10.7983    0.2970   63.5970 H       1  ZINC000409064708    0.0800
     42 H42       -10.7739    1.9482   65.3725 H       1  ZINC000409064708    0.1300
     43 H43        -9.5676    2.8518   67.3193 H       1  ZINC000409064708    0.1400
     44 H44        -7.1446    2.4816   67.5476 H       1  ZINC000409064708    0.1400
     45 H45        -7.1367    0.2951   63.8810 H       1  ZINC000409064708    0.1400
     46 H46       -11.2529    0.1218   61.5712 H       1  ZINC000409064708    0.1300
     47 H47       -12.2046   -0.9708   59.5873 H       1  ZINC000409064708    0.1300
@<TRIPOS>BOND
     1     1     2    1
     2     1    31    1
     3     1    32    1
     4     1    33    1
     5     2     3    1
     6     3     4    2
     7     3     5    1
     8     5     6    1
     9     5     7    1
    10     5     8    1
    11     7    34    1
    12     7    35    1
    13     7    36    1
    14     8    29   am
    15     8     9   am
    16     9    10    2
    17     9    11    1
    18    11    12    1
    19    12    13    2
    20    12    29    1
    21    13    14    1
    22    13    37    1
    23    14    28   ar
    24    14    15   ar
    25    15    16   ar
    26    15    38    1
    27    16    17   ar
    28    16    39    1
    29    17    18    1
    30    17    27   ar
    31    18    19    1
    32    19    20    1
    33    19    40    1
    34    19    41    1
    35    20    26   ar
    36    20    21   ar
    37    21    22   ar
    38    21    42    1
    39    22    23   ar
    40    22    43    1
    41    23    24   ar
    42    23    44    1
    43    24    25    1
    44    24    26   ar
    45    26    45    1
    46    27    28   ar
    47    27    46    1
    48    28    47    1
    49    29    30    2
@<TRIPOS>SUBSTRUCTURE
     1 ZINC000409064708        1 TEMP              0 ****  ****    0 ROOT


##########                                Name:    ZINC001296589646
##########                DOCK_Rotatable_Bonds:                   8
##########                         Heavy_Atoms:                  29
##########                    Molecular_Weight:             398.548
##########                DOCK_Rotatable_Bonds:                   8
##########                       Formal_Charge:          -0.0200008
##########                     HBond_Acceptors:                   6
##########                        HBond_Donors:                   0
##########                         Heavy_Atoms:                  29
##########                          Grid_Score:          -33.308128
##########                     Grid_vdw_energy:          -32.695393
##########                      Grid_es_energy:           -0.612737
##########           Internal_energy_repulsive:           23.126900

@<TRIPOS>MOLECULE
ZINC001296589646
 63 66 1 0 0
SMALL
USER_CHARGES


@<TRIPOS>ATOM
      1 C1        -13.8867    0.6114   53.5118 C.3     1  ZINC001296589646   -0.1500
      2 C2        -12.8898    0.0172   54.5089 C.3     1  ZINC001296589646    0.0500
      3 O3        -12.5461   -1.3099   54.1052 O.3     1  ZINC001296589646   -0.3600
      4 C4        -11.1682   -1.6370   54.2963 C.3     1  ZINC001296589646    0.1800
      5 C5        -10.7116   -1.2397   55.6765 C.2     1  ZINC001296589646    0.1500
      6 N6         -9.8739   -0.2852   55.9676 N.2     1  ZINC001296589646   -0.2600
      7 N7         -9.7075   -0.2180   57.2404 N.2     1  ZINC001296589646   -0.3200
      8 C8        -10.4362   -1.1335   57.8342 C.2     1  ZINC001296589646    0.3600
      9 N9        -10.5167   -1.3655   59.1981 N.3     1  ZINC001296589646   -0.4300
     10 C10        -9.1954   -1.7603   59.7499 C.3     1  ZINC001296589646    0.0300
     11 C11        -9.3396   -1.4615   61.2633 C.3     1  ZINC001296589646   -0.1200
     12 C12       -10.1801   -0.1641   61.2811 C.3     1  ZINC001296589646   -0.1000
     13 H13        -9.5311    0.7058   61.3814 H       1  ZINC001296589646    0.0800
     14 C14       -11.1941   -0.2040   62.4261 C.3     1  ZINC001296589646   -0.1400
     15 C15       -10.9053   -0.1362   59.9228 C.3     1  ZINC001296589646    0.0500
     16 N16       -11.1041   -1.8102   56.8555 N.pl3   1  ZINC001296589646   -0.4600
     17 C17       -12.0401   -2.9235   57.0309 C.3     1  ZINC001296589646    0.1000
     18 C18       -13.1167   -2.5299   58.0443 C.3     1  ZINC001296589646   -0.1300
     19 C19       -14.3398   -3.4314   57.8650 C.3     1  ZINC001296589646   -0.0500
     20 H20       -14.0156   -4.4663   57.7565 H       1  ZINC001296589646    0.0800
     21 C21       -15.2488   -3.3072   59.0893 C.3     1  ZINC001296589646   -0.1500
     22 C22       -15.0973   -3.0106   56.6320 C.ar    1  ZINC001296589646   -0.0800
     23 C23       -15.9263   -1.9051   56.6737 C.ar    1  ZINC001296589646   -0.1100
     24 C24       -16.6212   -1.5192   55.5428 C.ar    1  ZINC001296589646   -0.1200
     25 C25       -16.4869   -2.2385   54.3700 C.ar    1  ZINC001296589646   -0.1200
     26 C26       -15.6573   -3.3434   54.3280 C.ar    1  ZINC001296589646   -0.1200
     27 C27       -14.9591   -3.7268   55.4578 C.ar    1  ZINC001296589646   -0.1200
     28 C28       -10.2858   -0.9725   53.2047 C.3     1  ZINC001296589646   -0.1400
     29 C29       -10.4150   -2.0028   52.0546 C.3     1  ZINC001296589646    0.0600
     30 O30       -10.4512   -3.2847   52.7018 O.3     1  ZINC001296589646   -0.3700
     31 C31       -10.9208   -3.1404   54.0472 C.3     1  ZINC001296589646    0.0400
     32 H32       -13.4067    0.7204   52.5393 H       1  ZINC001296589646    0.0600
     33 H33       -14.7474   -0.0510   53.4201 H       1  ZINC001296589646    0.0700
     34 H34       -14.2161    1.5883   53.8659 H       1  ZINC001296589646    0.0700
     35 H35       -11.9909    0.6332   54.5349 H       1  ZINC001296589646    0.0500
     36 H36       -13.3404   -0.0100   55.5009 H       1  ZINC001296589646    0.0600
     37 H37        -9.0103   -2.8214   59.5830 H       1  ZINC001296589646    0.0900
     38 H38        -8.4000   -1.1566   59.3127 H       1  ZINC001296589646    0.0600
     39 H39        -9.8681   -2.2705   61.7675 H       1  ZINC001296589646    0.0800
     40 H40        -8.3631   -1.2947   61.7183 H       1  ZINC001296589646    0.0800
     41 H41       -10.6657   -0.2732   63.3770 H       1  ZINC001296589646    0.0600
     42 H42       -11.7959    0.7046   62.4102 H       1  ZINC001296589646    0.0600
     43 H43       -11.8429   -1.0717   62.3069 H       1  ZINC001296589646    0.0600
     44 H44       -10.5976    0.7423   59.3556 H       1  ZINC001296589646    0.0800
     45 H45       -11.9841   -0.1220   60.0781 H       1  ZINC001296589646    0.0900
     46 H46       -12.5090   -3.1581   56.0753 H       1  ZINC001296589646    0.1100
     47 H47       -11.5006   -3.7978   57.3951 H       1  ZINC001296589646    0.1000
     48 H48       -12.7245   -2.6464   59.0546 H       1  ZINC001296589646    0.0800
     49 H49       -13.4042   -1.4909   57.8836 H       1  ZINC001296589646    0.0700
     50 H50       -16.1203   -3.9494   58.9614 H       1  ZINC001296589646    0.0600
     51 H51       -14.7009   -3.6116   59.9809 H       1  ZINC001296589646    0.0600
     52 H52       -15.5731   -2.2722   59.1976 H       1  ZINC001296589646    0.0600
     53 H53       -16.0312   -1.3431   57.5901 H       1  ZINC001296589646    0.1200
     54 H54       -17.2693   -0.6559   55.5757 H       1  ZINC001296589646    0.1200
     55 H55       -17.0304   -1.9373   53.4866 H       1  ZINC001296589646    0.1200
     56 H56       -15.5527   -3.9055   53.4118 H       1  ZINC001296589646    0.1200
     57 H57       -14.3109   -4.5901   55.4249 H       1  ZINC001296589646    0.1200
     58 H58       -10.6882   -0.0031   52.9106 H       1  ZINC001296589646    0.1000
     59 H59        -9.2516   -0.8821   53.5368 H       1  ZINC001296589646    0.1000
     60 H60       -11.3365   -1.8342   51.4973 H       1  ZINC001296589646    0.0700
     61 H61        -9.5531   -1.9385   51.3905 H       1  ZINC001296589646    0.0900
     62 H62       -10.1686   -3.5116   54.7432 H       1  ZINC001296589646    0.1000
     63 H63       -11.8506   -3.6944   54.1757 H       1  ZINC001296589646    0.0800
@<TRIPOS>BOND
     1     1     2    1
     2     1    32    1
     3     1    33    1
     4     1    34    1
     5     2     3    1
     6     2    35    1
     7     2    36    1
     8     3     4    1
     9     4    31    1
    10     4     5    1
    11     4    28    1
    12     5    16    1
    13     5     6    2
    14     6     7    1
    15     7     8    2
    16     8     9    1
    17     8    16    1
    18     9    15    1
    19     9    10    1
    20    10    11    1
    21    10    37    1
    22    10    38    1
    23    11    12    1
    24    11    39    1
    25    11    40    1
    26    12    13    1
    27    12    14    1
    28    12    15    1
    29    14    41    1
    30    14    42    1
    31    14    43    1
    32    15    44    1
    33    15    45    1
    34    16    17    1
    35    17    18    1
    36    17    46    1
    37    17    47    1
    38    18    19    1
    39    18    48    1
    40    18    49    1
    41    19    20    1
    42    19    21    1
    43    19    22    1
    44    21    50    1
    45    21    51    1
    46    21    52    1
    47    22    27   ar
    48    22    23   ar
    49    23    24   ar
    50    23    53    1
    51    24    25   ar
    52    24    54    1
    53    25    26   ar
    54    25    55    1
    55    26    27   ar
    56    26    56    1
    57    27    57    1
    58    28    29    1
    59    28    58    1
    60    28    59    1
    61    29    30    1
    62    29    60    1
    63    29    61    1
    64    30    31    1
    65    31    62    1
    66    31    63    1
@<TRIPOS>SUBSTRUCTURE
     1 ZINC001296589646        1 TEMP              0 ****  ****    0 ROOT


##########                                Name:    ZINC001087843226
##########                DOCK_Rotatable_Bonds:                   6
##########                         Heavy_Atoms:                  27
##########                    Molecular_Weight:             368.479
##########                DOCK_Rotatable_Bonds:                   6
##########                       Formal_Charge:        -4.47035e-07
##########                     HBond_Acceptors:                   6
##########                        HBond_Donors:                   1
##########                         Heavy_Atoms:                  27
##########                          Grid_Score:          -33.307590
##########                     Grid_vdw_energy:          -32.723846
##########                      Grid_es_energy:           -0.583745
##########           Internal_energy_repulsive:           29.368719

@<TRIPOS>MOLECULE
ZINC001087843226
 55 58 1 0 0
SMALL
USER_CHARGES


@<TRIPOS>ATOM
      1 C1         -0.0020    4.2666   46.4669 C.3     1  ZINC001087843226   -0.1500
      2 C2          0.0190    3.1498   45.4214 C.3     1  ZINC001087843226   -0.1500
      3 C3         -1.1331    2.1791   45.6888 C.3     1  ZINC001087843226    0.0700
      4 H4         -2.0776    2.7226   45.7131 H       1  ZINC001087843226    0.1000
      5 C5         -0.9088    1.4559   47.0335 C.3     1  ZINC001087843226    0.1300
      6 H6          0.1482    1.4559   47.2995 H       1  ZINC001087843226    0.1000
      7 N7         -1.7079    2.0746   48.0941 N.am    1  ZINC001087843226   -0.7200
      8 C8         -1.2909    2.0145   49.3743 C.2     1  ZINC001087843226    0.5600
      9 O9         -0.2525    1.4455   49.6491 O.2     1  ZINC001087843226   -0.5300
     10 C10        -2.0964    2.6405   50.4444 C.ar    1  ZINC001087843226   -0.1400
     11 C11        -1.5144    3.5750   51.3003 C.ar    1  ZINC001087843226   -0.0800
     12 C12        -2.2714    4.1557   52.2970 C.ar    1  ZINC001087843226   -0.1300
     13 C13        -3.6019    3.8123   52.4459 C.ar    1  ZINC001087843226   -0.0400
     14 C14        -4.4213    4.4517   53.5372 C.3     1  ZINC001087843226   -0.1200
     15 C15        -4.1889    2.8844   51.5991 C.ar    1  ZINC001087843226   -0.1100
     16 C16        -3.4441    2.3005   50.5957 C.ar    1  ZINC001087843226   -0.0300
     17 C17        -4.3047    1.3299   49.8158 C.3     1  ZINC001087843226   -0.0800
     18 C18        -5.5272    1.0594   50.7184 C.3     1  ZINC001087843226   -0.1200
     19 C19        -5.6057    2.3517   51.5614 C.3     1  ZINC001087843226   -0.0800
     20 C20        -1.4009    0.0139   46.7410 C.3     1  ZINC001087843226   -0.1400
     21 C21        -0.9592   -0.1747   45.2683 C.3     1  ZINC001087843226    0.0400
     22 N22        -1.1747    1.1479   44.6359 N.3     1  ZINC001087843226   -0.5100
     23 C23        -0.1630    1.4088   43.6032 C.3     1  ZINC001087843226    0.1100
     24 C24        -0.1926    0.3028   42.5801 C.2     1  ZINC001087843226    0.0800
     25 N25        -1.1711   -0.5349   42.4078 N.2     1  ZINC001087843226   -0.2700
     26 O26        -0.8017   -1.4081   41.3524 O.3     1  ZINC001087843226    0.0300
     27 N27         0.4879   -0.9977   40.9261 N.2     1  ZINC001087843226   -0.2800
     28 C28         0.8336    0.0196   41.6572 C.2     1  ZINC001087843226    0.0900
     29 C29         2.1342    0.7722   41.5429 C.3     1  ZINC001087843226   -0.0900
     30 H30         0.8582    4.9195   46.3185 H       1  ZINC001087843226    0.0600
     31 H31        -0.9197    4.8454   46.3620 H       1  ZINC001087843226    0.0600
     32 H32         0.0405    3.8309   47.4651 H       1  ZINC001087843226    0.0600
     33 H33        -0.0928    3.5811   44.4266 H       1  ZINC001087843226    0.0800
     34 H34         0.9665    2.6142   45.4809 H       1  ZINC001087843226    0.0700
     35 H35        -2.5372    2.5277   47.8749 H       1  ZINC001087843226    0.4000
     36 H36        -0.4747    3.8429   51.1838 H       1  ZINC001087843226    0.1300
     37 H37        -1.8236    4.8794   52.9618 H       1  ZINC001087843226    0.1300
     38 H38        -4.8859    5.3615   53.1569 H       1  ZINC001087843226    0.0800
     39 H39        -5.1955    3.7577   53.8643 H       1  ZINC001087843226    0.0700
     40 H40        -3.7751    4.6985   54.3795 H       1  ZINC001087843226    0.0700
     41 H41        -4.6216    1.7779   48.8739 H       1  ZINC001087843226    0.0800
     42 H42        -3.7589    0.4048   49.6308 H       1  ZINC001087843226    0.0900
     43 H43        -6.4300    0.9336   50.1207 H       1  ZINC001087843226    0.0800
     44 H44        -5.3561    0.1892   51.3520 H       1  ZINC001087843226    0.0700
     45 H45        -5.9475    2.1244   52.5711 H       1  ZINC001087843226    0.0800
     46 H46        -6.2732    3.0719   51.0884 H       1  ZINC001087843226    0.0800
     47 H47        -0.9066   -0.7069   47.3924 H       1  ZINC001087843226    0.0800
     48 H48        -2.4845   -0.0555   46.8356 H       1  ZINC001087843226    0.0800
     49 H49         0.0938   -0.4526   45.2206 H       1  ZINC001087843226    0.0600
     50 H50        -1.5745   -0.9314   44.7816 H       1  ZINC001087843226    0.0800
     51 H51        -0.3778    2.3601   43.1163 H       1  ZINC001087843226    0.1200
     52 H52         0.8239    1.4512   44.0640 H       1  ZINC001087843226    0.0700
     53 H53         1.9940    1.6452   40.9055 H       1  ZINC001087843226    0.1000
     54 H54         2.4562    1.0936   42.5334 H       1  ZINC001087843226    0.0900
     55 H55         2.8930    0.1222   41.1072 H       1  ZINC001087843226    0.0900
@<TRIPOS>BOND
     1     1     2    1
     2     1    30    1
     3     1    31    1
     4     1    32    1
     5     2     3    1
     6     2    33    1
     7     2    34    1
     8     3     4    1
     9     3    22    1
    10     3     5    1
    11     5     6    1
    12     5     7    1
    13     5    20    1
    14     7     8   am
    15     7    35    1
    16     8     9    2
    17     8    10    1
    18    10    16   ar
    19    10    11   ar
    20    11    12   ar
    21    11    36    1
    22    12    13   ar
    23    12    37    1
    24    13    14    1
    25    13    15   ar
    26    14    38    1
    27    14    39    1
    28    14    40    1
    29    15    19    1
    30    15    16   ar
    31    16    17    1
    32    17    18    1
    33    17    41    1
    34    17    42    1
    35    18    19    1
    36    18    43    1
    37    18    44    1
    38    19    45    1
    39    19    46    1
    40    20    21    1
    41    20    47    1
    42    20    48    1
    43    21    22    1
    44    21    49    1
    45    21    50    1
    46    22    23    1
    47    23    24    1
    48    23    51    1
    49    23    52    1
    50    24    28    1
    51    24    25    2
    52    25    26    1
    53    26    27    1
    54    27    28    2
    55    28    29    1
    56    29    53    1
    57    29    54    1
    58    29    55    1
@<TRIPOS>SUBSTRUCTURE
     1 ZINC001087843226        1 TEMP              0 ****  ****    0 ROOT


##########                                Name:    ZINC000995593866
##########                DOCK_Rotatable_Bonds:                   7
##########                         Heavy_Atoms:                  24
##########                    Molecular_Weight:             342.389
##########                DOCK_Rotatable_Bonds:                   7
##########                       Formal_Charge:                0.03
##########                     HBond_Acceptors:                   8
##########                        HBond_Donors:                   1
##########                         Heavy_Atoms:                  24
##########                          Grid_Score:          -33.297405
##########                     Grid_vdw_energy:          -32.039948
##########                      Grid_es_energy:           -1.257457
##########           Internal_energy_repulsive:           10.712339

@<TRIPOS>MOLECULE
ZINC000995593866
 48 50 1 0 0
SMALL
USER_CHARGES


@<TRIPOS>ATOM
      1 C1        -10.0136    0.1607   57.0499 C.3     1  ZINC000995593866   -0.1400
      2 C2        -10.9292   -0.2483   58.2055 C.3     1  ZINC000995593866   -0.0800
      3 C3        -11.5455    0.9904   58.8586 C.3     1  ZINC000995593866   -0.1400
      4 C4        -12.0362   -1.1996   57.7024 C.3     1  ZINC000995593866    0.1200
      5 N5        -11.5093   -2.5588   57.9660 N.am    1  ZINC000995593866   -0.6300
      6 C6        -11.6129   -3.6517   57.1840 C.2     1  ZINC000995593866    0.5400
      7 O7        -11.1226   -4.7018   57.5415 O.2     1  ZINC000995593866   -0.5300
      8 C8        -12.3378   -3.5687   55.8655 C.3     1  ZINC000995593866   -0.1300
      9 C9        -11.3186   -3.4719   54.7284 C.3     1  ZINC000995593866   -0.1000
     10 C10       -11.8381   -4.0168   53.3875 C.3     1  ZINC000995593866   -0.1300
     11 C11       -11.1263   -2.8291   52.7187 C.3     1  ZINC000995593866   -0.1400
     12 C12       -11.2728   -2.0884   54.0584 C.3     1  ZINC000995593866   -0.1400
     13 C13       -10.8430   -2.4444   59.2842 C.3     1  ZINC000995593866    0.1100
     14 C14       -10.1423   -1.0691   59.2485 C.3     1  ZINC000995593866    0.0800
     15 H15        -9.1037   -1.1809   58.9376 H       1  ZINC000995593866    0.0700
     16 N16       -10.2132   -0.4255   60.5671 N.3     1  ZINC000995593866   -0.6800
     17 C17        -9.3929   -1.1464   61.5496 C.3     1  ZINC000995593866    0.1500
     18 C18        -9.3492   -0.3652   62.8374 C.2     1  ZINC000995593866    0.1900
     19 N19       -10.2976    0.4026   63.3177 N.2     1  ZINC000995593866   -0.4300
     20 C20        -9.8181    0.8884   64.4766 C.2     1  ZINC000995593866    0.0900
     21 C21       -10.5336    1.8260   65.4147 C.3     1  ZINC000995593866    0.3800
     22 F22       -10.2599    3.1486   65.0505 F       1  ZINC000995593866   -0.1800
     23 F23       -11.9119    1.5977   65.3408 F       1  ZINC000995593866   -0.1700
     24 N24        -8.6248    0.4003   64.6390 N.2     1  ZINC000995593866   -0.3400
     25 O25        -8.3388   -0.3269   63.7113 O.3     1  ZINC000995593866    0.1000
     26 H26        -9.6126   -0.7323   56.5705 H       1  ZINC000995593866    0.0600
     27 H27       -10.5830    0.7391   56.3224 H       1  ZINC000995593866    0.0600
     28 H28        -9.1928    0.7667   57.4336 H       1  ZINC000995593866    0.0600
     29 H29       -12.1189    1.5454   58.1160 H       1  ZINC000995593866    0.0700
     30 H30       -12.2041    0.6833   59.6710 H       1  ZINC000995593866    0.0700
     31 H31       -10.7525    1.6253   59.2539 H       1  ZINC000995593866    0.0600
     32 H32       -12.9596   -1.0355   58.2578 H       1  ZINC000995593866    0.0800
     33 H33       -12.2033   -1.0571   56.6347 H       1  ZINC000995593866    0.0900
     34 H34       -12.9493   -4.4608   55.7303 H       1  ZINC000995593866    0.0900
     35 H35       -12.9766   -2.6856   55.8569 H       1  ZINC000995593866    0.0900
     36 H36       -10.3369   -3.8553   55.0061 H       1  ZINC000995593866    0.1000
     37 H37       -11.4179   -4.9858   53.1178 H       1  ZINC000995593866    0.0700
     38 H38       -12.9236   -3.9843   53.2940 H       1  ZINC000995593866    0.0800
     39 H39       -10.0918   -3.0374   52.4458 H       1  ZINC000995593866    0.0800
     40 H40       -11.6971   -2.3791   51.9064 H       1  ZINC000995593866    0.0700
     41 H41       -12.2037   -1.5286   54.1483 H       1  ZINC000995593866    0.0800
     42 H42       -10.3962   -1.5004   54.3303 H       1  ZINC000995593866    0.0700
     43 H43       -11.5801   -2.4748   60.0866 H       1  ZINC000995593866    0.0900
     44 H44       -10.1099   -3.2412   59.4099 H       1  ZINC000995593866    0.0800
     45 H45        -9.9413    0.5445   60.5111 H       1  ZINC000995593866    0.3600
     46 H46        -9.8275   -2.1286   61.7350 H       1  ZINC000995593866    0.1200
     47 H47        -8.3812   -1.2641   61.1615 H       1  ZINC000995593866    0.0800
     48 H48       -10.1906    1.6514   66.4345 H       1  ZINC000995593866    0.1500
@<TRIPOS>BOND
     1     1     2    1
     2     1    26    1
     3     1    27    1
     4     1    28    1
     5     2    14    1
     6     2     3    1
     7     2     4    1
     8     3    29    1
     9     3    30    1
    10     3    31    1
    11     4     5    1
    12     4    32    1
    13     4    33    1
    14     5     6   am
    15     5    13    1
    16     6     7    2
    17     6     8    1
    18     8     9    1
    19     8    34    1
    20     8    35    1
    21     9    12    1
    22     9    10    1
    23     9    36    1
    24    10    11    1
    25    10    37    1
    26    10    38    1
    27    11    12    1
    28    11    39    1
    29    11    40    1
    30    12    41    1
    31    12    42    1
    32    13    14    1
    33    13    43    1
    34    13    44    1
    35    14    15    1
    36    14    16    1
    37    16    17    1
    38    16    45    1
    39    17    18    1
    40    17    46    1
    41    17    47    1
    42    18    25    1
    43    18    19    2
    44    19    20    1
    45    20    21    1
    46    20    24    2
    47    21    22    1
    48    21    23    1
    49    21    48    1
    50    24    25    1
@<TRIPOS>SUBSTRUCTURE
     1 ZINC000995593866        1 TEMP              0 ****  ****    0 ROOT


##########                                Name:    ZINC000053543817
##########                DOCK_Rotatable_Bonds:                   7
##########                         Heavy_Atoms:                  25
##########                    Molecular_Weight:             350.458
##########                DOCK_Rotatable_Bonds:                   7
##########                       Formal_Charge:           0.0199998
##########                     HBond_Acceptors:                   6
##########                        HBond_Donors:                   2
##########                         Heavy_Atoms:                  25
##########                          Grid_Score:          -33.260502
##########                     Grid_vdw_energy:          -33.429489
##########                      Grid_es_energy:            0.168987
##########           Internal_energy_repulsive:           13.436634

@<TRIPOS>MOLECULE
ZINC000053543817
 55 56 1 0 0
SMALL
USER_CHARGES


@<TRIPOS>ATOM
      1 C1         -6.8726   -0.2969   50.9584 C.3     1  ZINC000053543817   -0.0700
      2 C2         -8.0662   -0.6902   51.7902 C.2     1  ZINC000053543817   -0.0200
      3 C3         -8.6761    0.0853   52.7084 C.2     1  ZINC000053543817   -0.1800
      4 C4         -9.7346   -0.6746   53.2380 C.2     1  ZINC000053543817   -0.1900
      5 C5         -9.7157   -1.8713   52.6160 C.2     1  ZINC000053543817    0.0000
      6 C6        -10.6968   -2.9828   52.8990 C.3     1  ZINC000053543817   -0.0300
      7 C7        -11.8989   -2.3902   53.6440 C.3     1  ZINC000053543817   -0.0500
      8 C8        -12.7041   -1.5055   52.6901 C.3     1  ZINC000053543817   -0.1500
      9 C9        -12.7875   -3.5236   54.1605 C.3     1  ZINC000053543817   -0.1400
     10 C10       -11.4060   -1.5500   54.8254 C.3     1  ZINC000053543817   -0.1200
     11 C11       -10.7279   -0.2785   54.2990 C.3     1  ZINC000053543817    0.2200
     12 H12       -11.4776    0.3867   53.8706 H       1  ZINC000053543817    0.1000
     13 N13       -10.0344    0.4011   55.3959 N.am    1  ZINC000053543817   -0.7100
     14 C14       -10.6646    1.3636   56.0980 C.2     1  ZINC000053543817    0.5100
     15 O15       -11.8053    1.6680   55.8207 O.2     1  ZINC000053543817   -0.5300
     16 C16        -9.9517    2.0614   57.2276 C.3     1  ZINC000053543817    0.1400
     17 H17       -10.6728    2.6259   57.8187 H       1  ZINC000053543817    0.1200
     18 C18        -8.9022    3.0164   56.6556 C.3     1  ZINC000053543817   -0.1600
     19 N19        -9.2945    1.0666   58.0788 N.am    1  ZINC000053543817   -0.7000
     20 C20        -9.9816    0.4720   59.0742 C.2     1  ZINC000053543817    0.6600
     21 O21       -11.1457    0.7622   59.2666 O.2     1  ZINC000053543817   -0.5700
     22 O22        -9.3781   -0.4434   59.8554 O.3     1  ZINC000053543817   -0.3600
     23 C23        -9.9717   -1.7679   59.8982 C.3     1  ZINC000053543817    0.1400
     24 C24        -8.9487   -2.7680   60.4406 C.3     1  ZINC000053543817   -0.1800
     25 C25       -11.1989   -1.7475   60.8114 C.3     1  ZINC000053543817   -0.1400
     26 C26       -10.3928   -2.1837   58.4872 C.3     1  ZINC000053543817   -0.1800
     27 O27        -8.7060   -1.8723   51.7375 O.3     1  ZINC000053543817   -0.1700
     28 H28        -6.6009   -1.1220   50.3000 H       1  ZINC000053543817    0.0800
     29 H29        -7.1201    0.5794   50.3594 H       1  ZINC000053543817    0.0800
     30 H30        -6.0337   -0.0638   51.6141 H       1  ZINC000053543817    0.0800
     31 H31        -8.4047    1.0936   52.9839 H       1  ZINC000053543817    0.1400
     32 H32       -11.0294   -3.4257   51.9602 H       1  ZINC000053543817    0.0900
     33 H33       -10.2205   -3.7431   53.5180 H       1  ZINC000053543817    0.0900
     34 H34       -13.0561   -2.1037   51.8497 H       1  ZINC000053543817    0.0600
     35 H35       -13.5587   -1.0842   53.2196 H       1  ZINC000053543817    0.0600
     36 H36       -12.0710   -0.6984   52.3217 H       1  ZINC000053543817    0.0600
     37 H37       -12.2139   -4.1543   54.8396 H       1  ZINC000053543817    0.0600
     38 H38       -13.6422   -3.1026   54.6901 H       1  ZINC000053543817    0.0600
     39 H39       -13.1396   -4.1212   53.3196 H       1  ZINC000053543817    0.0600
     40 H40       -12.2525   -1.2765   55.4551 H       1  ZINC000053543817    0.0800
     41 H41       -10.6903   -2.1288   55.4094 H       1  ZINC000053543817    0.0700
     42 H42        -9.1216    0.1584   55.6169 H       1  ZINC000053543817    0.4000
     43 H43        -9.3911    3.7566   56.0222 H       1  ZINC000053543817    0.0800
     44 H44        -8.3864    3.5211   57.4725 H       1  ZINC000053543817    0.0800
     45 H45        -8.1810    2.4518   56.0644 H       1  ZINC000053543817    0.0700
     46 H46        -8.3648    0.8357   57.9260 H       1  ZINC000053543817    0.4200
     47 H47        -8.6487   -2.4718   61.4457 H       1  ZINC000053543817    0.0600
     48 H48        -9.3943   -3.7623   60.4726 H       1  ZINC000053543817    0.0700
     49 H49        -8.0743   -2.7824   59.7898 H       1  ZINC000053543817    0.0900
     50 H50       -11.9277   -1.0351   60.4250 H       1  ZINC000053543817    0.0700
     51 H51       -11.6445   -2.7419   60.8434 H       1  ZINC000053543817    0.0800
     52 H52       -10.8989   -1.4514   61.8166 H       1  ZINC000053543817    0.0700
     53 H53        -9.5184   -2.1982   57.8365 H       1  ZINC000053543817    0.0900
     54 H54       -10.8384   -3.1780   58.5191 H       1  ZINC000053543817    0.0700
     55 H55       -11.1215   -1.4712   58.1007 H       1  ZINC000053543817    0.0600
@<TRIPOS>BOND
     1     1     2    1
     2     1    28    1
     3     1    29    1
     4     1    30    1
     5     2    27    1
     6     2     3    2
     7     3     4    1
     8     3    31    1
     9     4    11    1
    10     4     5    2
    11     5     6    1
    12     5    27    1
    13     6     7    1
    14     6    32    1
    15     6    33    1
    16     7     8    1
    17     7     9    1
    18     7    10    1
    19     8    34    1
    20     8    35    1
    21     8    36    1
    22     9    37    1
    23     9    38    1
    24     9    39    1
    25    10    11    1
    26    10    40    1
    27    10    41    1
    28    11    12    1
    29    11    13    1
    30    13    14   am
    31    13    42    1
    32    14    15    2
    33    14    16    1
    34    16    17    1
    35    16    18    1
    36    16    19    1
    37    18    43    1
    38    18    44    1
    39    18    45    1
    40    19    20   am
    41    19    46    1
    42    20    21    2
    43    20    22    1
    44    22    23    1
    45    23    24    1
    46    23    25    1
    47    23    26    1
    48    24    47    1
    49    24    48    1
    50    24    49    1
    51    25    50    1
    52    25    51    1
    53    25    52    1
    54    26    53    1
    55    26    54    1
    56    26    55    1
@<TRIPOS>SUBSTRUCTURE
     1 ZINC000053543817        1 TEMP              0 ****  ****    0 ROOT


##########                                Name:    ZINC000269356812
##########                DOCK_Rotatable_Bonds:                  10
##########                         Heavy_Atoms:                  25
##########                    Molecular_Weight:             387.431
##########                DOCK_Rotatable_Bonds:                  10
##########                       Formal_Charge:          0.00999978
##########                     HBond_Acceptors:                  10
##########                        HBond_Donors:                   3
##########                         Heavy_Atoms:                  25
##########                          Grid_Score:          -33.255608
##########                     Grid_vdw_energy:          -32.433651
##########                      Grid_es_energy:           -0.821958
##########           Internal_energy_repulsive:            8.284707

@<TRIPOS>MOLECULE
ZINC000269356812
 40 41 1 0 0
SMALL
USER_CHARGES


@<TRIPOS>ATOM
      1 C1        -13.9926   -5.3521   55.0910 C.3     1  ZINC000269356812   -0.1400
      2 C2        -13.8409   -4.7083   56.4707 C.3     1  ZINC000269356812    0.2000
      3 O3        -14.1315   -5.6751   57.4821 O.3     1  ZINC000269356812   -0.5400
      4 C4        -12.4064   -4.2049   56.6436 C.3     1  ZINC000269356812    0.0900
      5 N5        -12.2903   -3.4884   57.9161 N.am    1  ZINC000269356812   -0.6900
      6 C6        -11.0998   -2.9874   58.3012 C.2     1  ZINC000269356812    0.5100
      7 O7        -10.1237   -3.1312   57.5944 O.2     1  ZINC000269356812   -0.5100
      8 C8        -10.9819   -2.2556   59.5974 C.2     1  ZINC000269356812    0.5100
      9 O9        -11.9258   -2.2150   60.3596 O.2     1  ZINC000269356812   -0.4900
     10 N10        -9.8274   -1.6399   59.9211 N.am    1  ZINC000269356812   -0.6400
     11 C11        -9.7169   -0.9541   61.1357 C.ar    1  ZINC000269356812    0.0900
     12 C12       -10.4942    0.1776   61.3806 C.ar    1  ZINC000269356812   -0.0600
     13 C13       -10.3528    0.8235   62.5944 C.ar    1  ZINC000269356812   -0.1200
     14 C14        -9.4457    0.3269   63.5256 C.ar    1  ZINC000269356812    0.1000
     15 S15        -9.2562    1.1405   65.0769 S.3     1  ZINC000269356812   -0.0600
     16 C16        -7.6538    0.5277   65.6661 C.3     1  ZINC000269356812    0.2900
     17 F17        -7.1881    1.3540   66.6945 F       1  ZINC000269356812   -0.1700
     18 F18        -7.8021   -0.7775   66.1476 F       1  ZINC000269356812   -0.1700
     19 N19        -8.7236   -0.7510   63.2590 N.ar    1  ZINC000269356812   -0.4600
     20 C20        -8.8368   -1.3952   62.1135 C.ar    1  ZINC000269356812    0.1100
     21 C21       -14.7977   -3.5505   56.5927 C.2     1  ZINC000269356812   -0.2300
     22 C22       -15.2210   -2.7927   55.5798 C.2     1  ZINC000269356812   -0.1100
     23 C23       -16.1009   -1.7844   55.9338 C.2     1  ZINC000269356812   -0.1400
     24 C24       -16.3923   -1.7234   57.2340 C.2     1  ZINC000269356812   -0.2000
     25 S25       -15.5332   -2.9966   58.0913 S.3     1  ZINC000269356812    0.1100
     26 H26       -15.0145   -5.7108   54.9679 H       1  ZINC000269356812    0.0800
     27 H27       -13.7710   -4.6146   54.3196 H       1  ZINC000269356812    0.0800
     28 H28       -13.3006   -6.1896   55.0027 H       1  ZINC000269356812    0.0700
     29 H29       -15.0264   -6.0382   57.4336 H       1  ZINC000269356812    0.3800
     30 H30       -11.7210   -5.0524   56.6399 H       1  ZINC000269356812    0.0900
     31 H31       -12.1563   -3.5318   55.8234 H       1  ZINC000269356812    0.0900
     32 H32       -13.0702   -3.3745   58.4815 H       1  ZINC000269356812    0.4200
     33 H33        -9.0732   -1.6722   59.3119 H       1  ZINC000269356812    0.4300
     34 H34       -11.1903    0.5410   60.6390 H       1  ZINC000269356812    0.1600
     35 H35       -10.9387    1.7031   62.8173 H       1  ZINC000269356812    0.1500
     36 H36        -6.9383    0.5326   64.8438 H       1  ZINC000269356812    0.1500
     37 H37        -8.2312   -2.2707   61.9312 H       1  ZINC000269356812    0.1700
     38 H38       -14.9010   -2.9532   54.5609 H       1  ZINC000269356812    0.1500
     39 H39       -16.5195   -1.0988   55.2118 H       1  ZINC000269356812    0.1400
     40 H40       -17.0569   -1.0046   57.6900 H       1  ZINC000269356812    0.1700
@<TRIPOS>BOND
     1     1     2    1
     2     1    26    1
     3     1    27    1
     4     1    28    1
     5     2     3    1
     6     2     4    1
     7     2    21    1
     8     3    29    1
     9     4     5    1
    10     4    30    1
    11     4    31    1
    12     5     6   am
    13     5    32    1
    14     6     7    2
    15     6     8    1
    16     8     9    2
    17     8    10   am
    18    10    11    1
    19    10    33    1
    20    11    20   ar
    21    11    12   ar
    22    12    13   ar
    23    12    34    1
    24    13    14   ar
    25    13    35    1
    26    14    15    1
    27    14    19   ar
    28    15    16    1
    29    16    17    1
    30    16    18    1
    31    16    36    1
    32    19    20   ar
    33    20    37    1
    34    21    25    1
    35    21    22    2
    36    22    23    1
    37    22    38    1
    38    23    24    2
    39    23    39    1
    40    24    25    1
    41    24    40    1
@<TRIPOS>SUBSTRUCTURE
     1 ZINC000269356812        1 TEMP              0 ****  ****    0 ROOT


##########                                Name:    ZINC000573150059
##########                DOCK_Rotatable_Bonds:                   7
##########                         Heavy_Atoms:                  23
##########                    Molecular_Weight:             378.269
##########                DOCK_Rotatable_Bonds:                   7
##########                       Formal_Charge:        -2.98023e-07
##########                     HBond_Acceptors:                   5
##########                        HBond_Donors:                   2
##########                         Heavy_Atoms:                  23
##########                          Grid_Score:          -33.217697
##########                     Grid_vdw_energy:          -33.016975
##########                      Grid_es_energy:           -0.200722
##########           Internal_energy_repulsive:           10.136509

@<TRIPOS>MOLECULE
ZINC000573150059
 43 44 1 0 0
SMALL
USER_CHARGES


@<TRIPOS>ATOM
      1 C1         -9.4500    2.3235   51.7342 C.3     1  ZINC000573150059    0.0300
      2 O2         -8.3356    1.4413   51.8815 O.3     1  ZINC000573150059   -0.3600
      3 C3         -8.3567    0.6744   53.0870 C.3     1  ZINC000573150059    0.0700
      4 H4         -7.5661   -0.0752   53.0546 H       1  ZINC000573150059    0.0900
      5 C5         -8.1330    1.6001   54.2844 C.3     1  ZINC000573150059   -0.1700
      6 C6         -9.6924   -0.0100   53.2237 C.2     1  ZINC000573150059    0.5100
      7 O7        -10.5497    0.4700   53.9348 O.2     1  ZINC000573150059   -0.4900
      8 N8         -9.9342   -1.1554   52.5560 N.am    1  ZINC000573150059   -0.6700
      9 C9        -11.1743   -1.7908   52.6829 C.ar    1  ZINC000573150059    0.1900
     10 C10       -12.2515   -1.3735   51.9113 C.ar    1  ZINC000573150059   -0.2000
     11 C11       -13.4767   -2.0003   52.0359 C.ar    1  ZINC000573150059   -0.0500
     12 C12       -13.6346   -3.0437   52.9271 C.ar    1  ZINC000573150059   -0.2200
     13 C13       -12.5608   -3.4663   53.7018 C.ar    1  ZINC000573150059    0.2400
     14 N14       -12.7211   -4.5216   54.6025 N.pl3   1  ZINC000573150059   -0.7300
     15 C15       -13.3781   -4.2912   55.8915 C.3     1  ZINC000573150059    0.2000
     16 H16       -14.0221   -3.4148   55.8195 H       1  ZINC000573150059    0.1000
     17 C17       -14.2204   -5.5141   56.2604 C.3     1  ZINC000573150059   -0.1700
     18 C18       -12.3340   -4.0615   56.9537 C.ar    1  ZINC000573150059    0.1400
     19 C19       -12.3046   -2.8586   57.6333 C.ar    1  ZINC000573150059   -0.1600
     20 C20       -11.3404   -2.6570   58.6091 C.ar    1  ZINC000573150059   -0.0400
     21 C21       -10.4374   -3.6782   58.8656 C.ar    1  ZINC000573150059   -0.1500
     22 Br22       -9.0994   -3.4646   60.1847 Br      1  ZINC000573150059   -0.0300
     23 C23       -10.5286   -4.8550   58.1444 C.ar    1  ZINC000573150059    0.1400
     24 N24       -11.4624   -5.0128   57.2271 N.ar    1  ZINC000573150059   -0.4700
     25 C25       -11.3280   -2.8419   53.5755 C.ar    1  ZINC000573150059   -0.1900
     26 H26       -10.3737    1.7447   51.7312 H       1  ZINC000573150059    0.0500
     27 H27        -9.4666    3.0296   52.5644 H       1  ZINC000573150059    0.0400
     28 H28        -9.3600    2.8691   50.7949 H       1  ZINC000573150059    0.0900
     29 H29        -8.9236    2.3497   54.3168 H       1  ZINC000573150059    0.0700
     30 H30        -8.1491    1.0151   55.2040 H       1  ZINC000573150059    0.0700
     31 H31        -7.1669    2.0950   54.1856 H       1  ZINC000573150059    0.0700
     32 H32        -9.2485   -1.5392   51.9872 H       1  ZINC000573150059    0.4100
     33 H33       -12.1312   -0.5580   51.2134 H       1  ZINC000573150059    0.1200
     34 H34       -14.3126   -1.6735   51.4351 H       1  ZINC000573150059    0.1300
     35 H35       -14.5935   -3.5313   53.0224 H       1  ZINC000573150059    0.1200
     36 H36       -12.3973   -5.4072   54.3747 H       1  ZINC000573150059    0.4100
     37 H37       -13.5764   -6.3905   56.3325 H       1  ZINC000573150059    0.0600
     38 H38       -14.7092   -5.3426   57.2194 H       1  ZINC000573150059    0.0700
     39 H39       -14.9756   -5.6803   55.4921 H       1  ZINC000573150059    0.0700
     40 H40       -13.0236   -2.0852   57.4070 H       1  ZINC000573150059    0.1500
     41 H41       -11.2934   -1.7269   59.1560 H       1  ZINC000573150059    0.1500
     42 H42        -9.8294   -5.6551   58.3376 H       1  ZINC000573150059    0.1700
     43 H43       -10.4919   -3.1686   54.1760 H       1  ZINC000573150059    0.1400
@<TRIPOS>BOND
     1     1     2    1
     2     1    26    1
     3     1    27    1
     4     1    28    1
     5     2     3    1
     6     3     4    1
     7     3     5    1
     8     3     6    1
     9     5    29    1
    10     5    30    1
    11     5    31    1
    12     6     7    2
    13     6     8   am
    14     8     9    1
    15     8    32    1
    16     9    25   ar
    17     9    10   ar
    18    10    11   ar
    19    10    33    1
    20    11    12   ar
    21    11    34    1
    22    12    13   ar
    23    12    35    1
    24    13    14    1
    25    13    25   ar
    26    14    15    1
    27    14    36    1
    28    15    16    1
    29    15    17    1
    30    15    18    1
    31    17    37    1
    32    17    38    1
    33    17    39    1
    34    18    24   ar
    35    18    19   ar
    36    19    20   ar
    37    19    40    1
    38    20    21   ar
    39    20    41    1
    40    21    22    1
    41    21    23   ar
    42    23    24   ar
    43    23    42    1
    44    25    43    1
@<TRIPOS>SUBSTRUCTURE
     1 ZINC000573150059        1 TEMP              0 ****  ****    0 ROOT


##########                                Name:    ZINC000540473851
##########                DOCK_Rotatable_Bonds:                   5
##########                         Heavy_Atoms:                  29
##########                    Molecular_Weight:             411.503
##########                DOCK_Rotatable_Bonds:                   5
##########                       Formal_Charge:           0.0200001
##########                     HBond_Acceptors:                   8
##########                        HBond_Donors:                   0
##########                         Heavy_Atoms:                  29
##########                          Grid_Score:          -33.211361
##########                     Grid_vdw_energy:          -33.805920
##########                      Grid_es_energy:            0.594557
##########           Internal_energy_repulsive:           18.695492

@<TRIPOS>MOLECULE
ZINC000540473851
 51 54 1 0 0
SMALL
USER_CHARGES


@<TRIPOS>ATOM
      1 C1        -12.5258    1.3626   52.3992 C.3     1  ZINC000540473851   -0.0800
      2 C2        -11.2070    0.6469   52.2595 C.2     1  ZINC000540473851    0.1500
      3 C3        -11.1015   -0.7174   52.2008 C.2     1  ZINC000540473851   -0.3100
      4 C4        -12.2125   -1.6750   52.2614 C.2     1  ZINC000540473851    0.6000
      5 O5        -12.6745   -2.1364   51.2347 O.2     1  ZINC000540473851   -0.5100
      6 N6        -12.7206   -2.0428   53.4542 N.am    1  ZINC000540473851   -0.6100
      7 C7        -13.8296   -3.0052   53.5379 C.3     1  ZINC000540473851    0.1000
      8 C8        -13.4425   -4.1090   54.5279 C.3     1  ZINC000540473851    0.0400
      9 N9        -13.0505   -3.5004   55.8062 N.3     1  ZINC000540473851   -0.5300
     10 C10       -12.8373   -4.5273   56.8347 C.3     1  ZINC000540473851    0.1200
     11 H11       -12.1879   -5.3084   56.4392 H       1  ZINC000540473851    0.0500
     12 C12       -14.1829   -5.1363   57.2340 C.3     1  ZINC000540473851   -0.1400
     13 C13       -12.1910   -3.9010   58.0435 C.ar    1  ZINC000540473851   -0.0500
     14 C14       -12.8845   -2.9696   58.7930 C.ar    1  ZINC000540473851   -0.1000
     15 C15       -12.2929   -2.3941   59.9023 C.ar    1  ZINC000540473851   -0.0900
     16 C16       -11.0072   -2.7496   60.2628 C.ar    1  ZINC000540473851   -0.1500
     17 C17       -10.3115   -3.6831   59.5128 C.ar    1  ZINC000540473851    0.1000
     18 F18        -9.0544   -4.0314   59.8643 F       1  ZINC000540473851   -0.1400
     19 C19       -10.9069   -4.2625   58.4054 C.ar    1  ZINC000540473851   -0.1500
     20 C20       -11.8587   -2.6556   55.6508 C.3     1  ZINC000540473851    0.0400
     21 C21       -12.1769   -1.4970   54.7071 C.3     1  ZINC000540473851    0.1200
     22 S22        -9.3930   -1.1168   52.0390 S.3     1  ZINC000540473851    0.2800
     23 C23        -8.9901    0.5441   52.0647 C.2     1  ZINC000540473851    0.0800
     24 C24        -7.6145    1.0798   51.9650 C.ar    1  ZINC000540473851    0.3800
     25 N25        -7.3795    2.3335   52.3305 N.ar    1  ZINC000540473851   -0.5100
     26 C26        -6.1626    2.8425   52.2539 C.ar    1  ZINC000540473851    0.1600
     27 C27        -5.1253    2.0492   51.7848 C.ar    1  ZINC000540473851   -0.2100
     28 C28        -5.4058    0.7426   51.4113 C.ar    1  ZINC000540473851    0.1500
     29 N29        -6.6439    0.2935   51.5176 N.ar    1  ZINC000540473851   -0.4700
     30 N30       -10.0641    1.2725   52.1780 N.2     1  ZINC000540473851   -0.4300
     31 H31       -12.9344    1.5681   51.4097 H       1  ZINC000540473851    0.0900
     32 H32       -13.2221    0.7360   52.9567 H       1  ZINC000540473851    0.0800
     33 H33       -12.3751    2.3014   52.9322 H       1  ZINC000540473851    0.0800
     34 H34       -14.7288   -2.4983   53.8880 H       1  ZINC000540473851    0.0900
     35 H35       -14.0107   -3.4416   52.5556 H       1  ZINC000540473851    0.0900
     36 H36       -14.2941   -4.7707   54.6863 H       1  ZINC000540473851    0.1000
     37 H37       -12.6065   -4.6813   54.1260 H       1  ZINC000540473851    0.0400
     38 H38       -14.8322   -4.3552   57.6294 H       1  ZINC000540473851    0.0700
     39 H39       -14.6503   -5.5893   56.3596 H       1  ZINC000540473851    0.0600
     40 H40       -14.0247   -5.8983   57.9971 H       1  ZINC000540473851    0.0600
     41 H41       -13.8894   -2.6908   58.5118 H       1  ZINC000540473851    0.1400
     42 H42       -12.8356   -1.6661   60.4871 H       1  ZINC000540473851    0.1300
     43 H43       -10.5450   -2.2995   61.1289 H       1  ZINC000540473851    0.1300
     44 H44       -10.3654   -4.9908   57.8200 H       1  ZINC000540473851    0.1300
     45 H45       -11.5617   -2.2632   56.6234 H       1  ZINC000540473851    0.1000
     46 H46       -11.0447   -3.2482   55.2331 H       1  ZINC000540473851    0.0400
     47 H47       -11.2671   -0.9341   54.4986 H       1  ZINC000540473851    0.1000
     48 H48       -12.9180   -0.8432   55.1668 H       1  ZINC000540473851    0.0800
     49 H49        -5.9775    3.8637   52.5524 H       1  ZINC000540473851    0.1800
     50 H50        -4.1213    2.4403   51.7118 H       1  ZINC000540473851    0.1600
     51 H51        -4.6209    0.0993   51.0421 H       1  ZINC000540473851    0.1800
@<TRIPOS>BOND
     1     1     2    1
     2     1    31    1
     3     1    32    1
     4     1    33    1
     5     2    30    1
     6     2     3    2
     7     3     4    1
     8     3    22    1
     9     4     5    2
    10     4     6   am
    11     6    21    1
    12     6     7    1
    13     7     8    1
    14     7    34    1
    15     7    35    1
    16     8     9    1
    17     8    36    1
    18     8    37    1
    19     9    10    1
    20     9    20    1
    21    10    11    1
    22    10    12    1
    23    10    13    1
    24    12    38    1
    25    12    39    1
    26    12    40    1
    27    13    19   ar
    28    13    14   ar
    29    14    15   ar
    30    14    41    1
    31    15    16   ar
    32    15    42    1
    33    16    17   ar
    34    16    43    1
    35    17    18    1
    36    17    19   ar
    37    19    44    1
    38    20    21    1
    39    20    45    1
    40    20    46    1
    41    21    47    1
    42    21    48    1
    43    22    23    1
    44    23    24    1
    45    23    30    2
    46    24    29   ar
    47    24    25   ar
    48    25    26   ar
    49    26    27   ar
    50    26    49    1
    51    27    28   ar
    52    27    50    1
    53    28    29   ar
    54    28    51    1
@<TRIPOS>SUBSTRUCTURE
     1 ZINC000540473851        1 TEMP              0 ****  ****    0 ROOT


##########                                Name:    ZINC001272744746
##########                DOCK_Rotatable_Bonds:                   6
##########                         Heavy_Atoms:                  25
##########                    Molecular_Weight:             348.417
##########                DOCK_Rotatable_Bonds:                   6
##########                       Formal_Charge:           0.0299999
##########                     HBond_Acceptors:                   6
##########                        HBond_Donors:                   1
##########                         Heavy_Atoms:                  25
##########                          Grid_Score:          -33.188747
##########                     Grid_vdw_energy:          -32.730713
##########                      Grid_es_energy:           -0.458035
##########           Internal_energy_repulsive:           23.744535

@<TRIPOS>MOLECULE
ZINC001272744746
 50 52 1 0 0
SMALL
USER_CHARGES


@<TRIPOS>ATOM
      1 C1         -9.6613   -1.3993   61.4536 C.2     1  ZINC001272744746   -0.1700
      2 C2         -9.4280   -2.5975   60.9782 C.2     1  ZINC001272744746   -0.1700
      3 C3         -8.9742   -2.7668   59.5511 C.3     1  ZINC001272744746    0.1500
      4 N4        -10.0820   -2.4510   58.6458 N.am    1  ZINC001272744746   -0.6100
      5 C5        -11.3281   -3.2242   58.5594 C.3     1  ZINC001272744746    0.0700
      6 C6        -12.3234   -2.3112   57.8228 C.3     1  ZINC001272744746    0.1100
      7 C7        -11.3925   -1.3865   57.0174 C.3     1  ZINC001272744746   -0.1500
      8 C8        -10.0910   -1.4127   57.7909 C.2     1  ZINC001272744746    0.5200
      9 O9         -9.1854   -0.6177   57.6541 O.2     1  ZINC001272744746   -0.5200
     10 C10       -13.1476   -1.5053   58.8172 C.3     1  ZINC001272744746   -0.1000
     11 C11       -14.0473   -2.4533   59.6176 C.3     1  ZINC001272744746   -0.1200
     12 C12       -14.9166   -3.2567   58.6462 C.3     1  ZINC001272744746   -0.1200
     13 C13       -14.0173   -4.0327   57.6815 C.3     1  ZINC001272744746    0.0500
     14 N14       -13.1763   -3.0900   56.9301 N.3     1  ZINC001272744746   -0.5100
     15 C15       -12.3766   -3.7906   55.9164 C.3     1  ZINC001272744746    0.0800
     16 C16       -12.7224   -3.2600   54.5490 C.ar    1  ZINC001272744746   -0.0200
     17 C17       -14.0464   -3.1410   54.1702 C.ar    1  ZINC001272744746   -0.1700
     18 C18       -14.3688   -2.6541   52.9148 C.ar    1  ZINC001272744746    0.1200
     19 F19       -15.6636   -2.5386   52.5467 F       1  ZINC001272744746   -0.1200
     20 C20       -13.3618   -2.2843   52.0355 C.ar    1  ZINC001272744746    0.0400
     21 O21       -13.6759   -1.8050   50.8016 O.3     1  ZINC001272744746   -0.4700
     22 C22       -12.0299   -2.4042   52.4185 C.ar    1  ZINC001272744746    0.1300
     23 O23       -11.0391   -2.0427   51.5601 O.3     1  ZINC001272744746   -0.3000
     24 C24        -9.6995   -2.1001   52.0545 C.3     1  ZINC001272744746    0.0200
     25 C25       -11.7147   -2.8879   53.6784 C.ar    1  ZINC001272744746   -0.1800
     26 H26        -9.5284   -0.5328   60.8228 H       1  ZINC001272744746    0.1000
     27 H27        -9.9907   -1.2783   62.4749 H       1  ZINC001272744746    0.1000
     28 H28        -9.5609   -3.4641   61.6089 H       1  ZINC001272744746    0.1100
     29 H29        -8.1398   -2.0941   59.3529 H       1  ZINC001272744746    0.0900
     30 H30        -8.6564   -3.7971   59.3907 H       1  ZINC001272744746    0.0800
     31 H31       -11.1654   -4.1407   57.9923 H       1  ZINC001272744746    0.0700
     32 H32       -11.6977   -3.4577   59.5579 H       1  ZINC001272744746    0.0900
     33 H33       -11.2494   -1.7733   56.0084 H       1  ZINC001272744746    0.1100
     34 H34       -11.7943   -0.3737   56.9857 H       1  ZINC001272744746    0.1100
     35 H35       -12.4807   -0.9759   59.4976 H       1  ZINC001272744746    0.0700
     36 H36       -13.7648   -0.7858   58.2793 H       1  ZINC001272744746    0.0800
     37 H37       -13.4296   -3.1346   60.2030 H       1  ZINC001272744746    0.0600
     38 H38       -14.6857   -1.8738   60.2845 H       1  ZINC001272744746    0.0700
     39 H39       -15.5371   -3.9559   59.2067 H       1  ZINC001272744746    0.0700
     40 H40       -15.5543   -2.5766   58.0814 H       1  ZINC001272744746    0.0700
     41 H41       -13.3825   -4.7155   58.2461 H       1  ZINC001272744746    0.0400
     42 H42       -14.6351   -4.6017   56.9868 H       1  ZINC001272744746    0.0900
     43 H43       -11.3169   -3.6265   56.1125 H       1  ZINC001272744746    0.1000
     44 H44       -12.5926   -4.8582   55.9572 H       1  ZINC001272744746    0.0600
     45 H45       -14.8308   -3.4288   54.8545 H       1  ZINC001272744746    0.1400
     46 H46       -12.9076   -1.5682   50.2643 H       1  ZINC001272744746    0.3900
     47 H47        -9.4671   -3.1213   52.3564 H       1  ZINC001272744746    0.0600
     48 H48        -9.0093   -1.7870   51.2710 H       1  ZINC001272744746    0.1100
     49 H49        -9.6001   -1.4358   52.9129 H       1  ZINC001272744746    0.0600
     50 H50       -10.6812   -2.9818   53.9775 H       1  ZINC001272744746    0.1400
@<TRIPOS>BOND
     1     1     2    2
     2     1    26    1
     3     1    27    1
     4     2     3    1
     5     2    28    1
     6     3     4    1
     7     3    29    1
     8     3    30    1
     9     4     8   am
    10     4     5    1
    11     5     6    1
    12     5    31    1
    13     5    32    1
    14     6    14    1
    15     6     7    1
    16     6    10    1
    17     7     8    1
    18     7    33    1
    19     7    34    1
    20     8     9    2
    21    10    11    1
    22    10    35    1
    23    10    36    1
    24    11    12    1
    25    11    37    1
    26    11    38    1
    27    12    13    1
    28    12    39    1
    29    12    40    1
    30    13    14    1
    31    13    41    1
    32    13    42    1
    33    14    15    1
    34    15    16    1
    35    15    43    1
    36    15    44    1
    37    16    25   ar
    38    16    17   ar
    39    17    18   ar
    40    17    45    1
    41    18    19    1
    42    18    20   ar
    43    20    21    1
    44    20    22   ar
    45    21    46    1
    46    22    23    1
    47    22    25   ar
    48    23    24    1
    49    24    47    1
    50    24    48    1
    51    24    49    1
    52    25    50    1
@<TRIPOS>SUBSTRUCTURE
     1 ZINC001272744746        1 TEMP              0 ****  ****    0 ROOT


##########                                Name:    ZINC001191386213
##########                DOCK_Rotatable_Bonds:                   6
##########                         Heavy_Atoms:                  29
##########                    Molecular_Weight:             392.433
##########                DOCK_Rotatable_Bonds:                   6
##########                       Formal_Charge:               -0.02
##########                     HBond_Acceptors:                   7
##########                        HBond_Donors:                   2
##########                         Heavy_Atoms:                  29
##########                          Grid_Score:          -33.152374
##########                     Grid_vdw_energy:          -32.056564
##########                      Grid_es_energy:           -1.095809
##########           Internal_energy_repulsive:          170.603302

@<TRIPOS>MOLECULE
ZINC001191386213
 50 53 1 0 0
SMALL
USER_CHARGES


@<TRIPOS>ATOM
      1 C1         -7.1755    1.2885   66.3105 C.3     1  ZINC001191386213   -0.1700
      2 C2         -8.3436    0.9420   65.4237 C.2     1  ZINC001191386213    0.5100
      3 O3         -9.4435    1.3920   65.6662 O.2     1  ZINC001191386213   -0.5200
      4 N4         -8.1661    0.1322   64.3611 N.am    1  ZINC001191386213   -0.6800
      5 C5         -9.2509   -0.1895   63.5376 C.ar    1  ZINC001191386213    0.1400
      6 C6        -10.5165    0.3020   63.8319 C.ar    1  ZINC001191386213   -0.1400
      7 C7        -11.5900   -0.0133   63.0205 C.ar    1  ZINC001191386213   -0.1000
      8 C8        -11.4107   -0.8186   61.9137 C.ar    1  ZINC001191386213   -0.1100
      9 C9        -10.1446   -1.3164   61.6112 C.ar    1  ZINC001191386213    0.0100
     10 C10        -9.9502   -2.1825   60.4213 C.2     1  ZINC001191386213    0.0700
     11 N11        -8.8594   -2.8539   60.1179 N.2     1  ZINC001191386213   -0.2500
     12 N12        -9.0152   -3.5062   59.0227 N.pl3   1  ZINC001191386213   -0.3800
     13 C13       -10.2701   -3.2888   58.5270 C.2     1  ZINC001191386213   -0.0400
     14 C14       -10.8402   -3.8538   57.2932 C.2     1  ZINC001191386213    0.6100
     15 O15       -10.9844   -5.0567   57.1851 O.2     1  ZINC001191386213   -0.5100
     16 N16       -11.2027   -3.0382   56.2833 N.am    1  ZINC001191386213   -0.6200
     17 C17       -11.7820   -3.4665   55.0018 C.3     1  ZINC001191386213    0.0800
     18 C18       -12.0097   -2.1967   54.1546 C.3     1  ZINC001191386213   -0.1200
     19 C19       -11.0228   -1.1779   54.7834 C.3     1  ZINC001191386213   -0.0600
     20 H20       -10.0168   -1.3122   54.3860 H       1  ZINC001191386213    0.1000
     21 C21       -11.4993    0.2361   54.5730 C.ar    1  ZINC001191386213   -0.1100
     22 C22       -12.3726    0.5250   53.5419 C.ar    1  ZINC001191386213   -0.0900
     23 C23       -12.8099    1.8223   53.3486 C.ar    1  ZINC001191386213   -0.1300
     24 C24       -12.3739    2.8318   54.1860 C.ar    1  ZINC001191386213   -0.0900
     25 C25       -11.5000    2.5453   55.2179 C.ar    1  ZINC001191386213   -0.1500
     26 C26       -11.0666    1.2456   55.4165 C.ar    1  ZINC001191386213    0.1100
     27 F27       -10.2124    0.9644   56.4247 F       1  ZINC001191386213   -0.1400
     28 C28       -11.0899   -1.5682   56.2833 C.3     1  ZINC001191386213    0.1200
     29 C29       -10.9005   -2.4395   59.4162 C.2     1  ZINC001191386213   -0.1300
     30 C30        -9.0617   -0.9944   62.4241 C.ar    1  ZINC001191386213   -0.1000
     31 H31        -7.5101    1.9486   67.1108 H       1  ZINC001191386213    0.1000
     32 H32        -6.7628    0.3760   66.7409 H       1  ZINC001191386213    0.0900
     33 H33        -6.4087    1.7914   65.7214 H       1  ZINC001191386213    0.0900
     34 H34        -7.2864   -0.2276   64.1671 H       1  ZINC001191386213    0.4100
     35 H35       -10.6620    0.9318   64.6972 H       1  ZINC001191386213    0.1300
     36 H36       -12.5721    0.3711   63.2533 H       1  ZINC001191386213    0.1300
     37 H37       -12.2519   -1.0633   61.2821 H       1  ZINC001191386213    0.1300
     38 H38        -8.3422   -4.0688   58.6086 H       1  ZINC001191386213    0.4400
     39 H39       -11.0919   -4.1359   54.4882 H       1  ZINC001191386213    0.0700
     40 H40       -12.7322   -3.9719   55.1749 H       1  ZINC001191386213    0.0800
     41 H41       -11.7604   -2.3806   53.1096 H       1  ZINC001191386213    0.0900
     42 H42       -13.0378   -1.8479   54.2514 H       1  ZINC001191386213    0.0900
     43 H43       -12.7134   -0.2629   52.8864 H       1  ZINC001191386213    0.1300
     44 H44       -13.4925    2.0472   52.5424 H       1  ZINC001191386213    0.1300
     45 H45       -12.7159    3.8449   54.0339 H       1  ZINC001191386213    0.1300
     46 H46       -11.1589    3.3344   55.8717 H       1  ZINC001191386213    0.1400
     47 H47       -11.9624   -1.1155   56.7544 H       1  ZINC001191386213    0.0800
     48 H48       -10.1785   -1.2611   56.7964 H       1  ZINC001191386213    0.0900
     49 H49       -11.9059   -2.0507   59.3503 H       1  ZINC001191386213    0.1700
     50 H50        -8.0787   -1.3779   62.1938 H       1  ZINC001191386213    0.1500
@<TRIPOS>BOND
     1     1     2    1
     2     1    31    1
     3     1    32    1
     4     1    33    1
     5     2     3    2
     6     2     4   am
     7     4     5    1
     8     4    34    1
     9     5    30   ar
    10     5     6   ar
    11     6     7   ar
    12     6    35    1
    13     7     8   ar
    14     7    36    1
    15     8     9   ar
    16     8    37    1
    17     9    10    1
    18     9    30   ar
    19    10    29    1
    20    10    11    2
    21    11    12    1
    22    12    13    1
    23    12    38    1
    24    13    14    1
    25    13    29    2
    26    14    15    2
    27    14    16   am
    28    16    28    1
    29    16    17    1
    30    17    18    1
    31    17    39    1
    32    17    40    1
    33    18    19    1
    34    18    41    1
    35    18    42    1
    36    19    20    1
    37    19    21    1
    38    19    28    1
    39    21    26   ar
    40    21    22   ar
    41    22    23   ar
    42    22    43    1
    43    23    24   ar
    44    23    44    1
    45    24    25   ar
    46    24    45    1
    47    25    26   ar
    48    25    46    1
    49    26    27    1
    50    28    47    1
    51    28    48    1
    52    29    49    1
    53    30    50    1
@<TRIPOS>SUBSTRUCTURE
     1 ZINC001191386213        1 TEMP              0 ****  ****    0 ROOT


##########                                Name:    ZINC000962730513
##########                DOCK_Rotatable_Bonds:                   6
##########                         Heavy_Atoms:                  24
##########                    Molecular_Weight:             342.465
##########                DOCK_Rotatable_Bonds:                   6
##########                       Formal_Charge:         -0.00999998
##########                     HBond_Acceptors:                   6
##########                        HBond_Donors:                   1
##########                         Heavy_Atoms:                  24
##########                          Grid_Score:          -33.143963
##########                     Grid_vdw_energy:          -32.096138
##########                      Grid_es_energy:           -1.047825
##########           Internal_energy_repulsive:           53.954891

@<TRIPOS>MOLECULE
ZINC000962730513
 46 49 1 0 0
SMALL
USER_CHARGES


@<TRIPOS>ATOM
      1 C1         -6.4826    0.9755   66.4556 C.3     1  ZINC000962730513   -0.1400
      2 C2         -7.7449    0.5027   65.7316 C.3     1  ZINC000962730513   -0.0800
      3 C3         -8.7196    1.6468   65.6222 C.2     1  ZINC000962730513   -0.0100
      4 C4         -9.6173    1.7736   64.5997 C.2     1  ZINC000962730513   -0.2800
      5 C5         -9.7679    0.8401   63.4796 C.2     1  ZINC000962730513    0.6000
      6 O6        -10.6036    1.0505   62.6202 O.2     1  ZINC000962730513   -0.5200
      7 N7         -8.9809   -0.2511   63.4014 N.am    1  ZINC000962730513   -0.7000
      8 C8         -9.1326   -1.1851   62.2829 C.3     1  ZINC000962730513    0.1200
      9 H9         -8.4717   -2.0516   62.3019 H       1  ZINC000962730513    0.1400
     10 C10        -9.4840   -0.5961   60.9153 C.3     1  ZINC000962730513   -0.1700
     11 H11        -9.5441    0.4856   60.7956 H       1  ZINC000962730513    0.1200
     12 C12        -9.1760   -1.4388   59.6591 C.3     1  ZINC000962730513    0.0700
     13 N13       -10.3802   -2.2887   59.4737 N.3     1  ZINC000962730513   -0.5000
     14 C14       -10.0711   -3.4685   58.6549 C.3     1  ZINC000962730513    0.1100
     15 C15       -11.1209   -3.6269   57.5854 C.ar    1  ZINC000962730513    0.3200
     16 N16       -12.3914   -3.6627   57.9342 N.ar    1  ZINC000962730513   -0.5100
     17 C17       -13.3409   -3.8007   57.0227 C.ar    1  ZINC000962730513    0.1500
     18 C18       -12.9837   -3.9080   55.6879 C.ar    1  ZINC000962730513   -0.1900
     19 C19       -14.0335   -4.0660   54.6184 C.3     1  ZINC000962730513   -0.1100
     20 C20       -11.6376   -3.8662   55.3603 C.ar    1  ZINC000962730513    0.1500
     21 N21       -10.7444   -3.7208   56.3259 N.ar    1  ZINC000962730513   -0.5000
     22 C22       -10.7639   -2.6839   60.8535 C.3     1  ZINC000962730513    0.0700
     23 C23       -10.5397   -1.3835   61.7160 C.3     1  ZINC000962730513   -0.1700
     24 H24       -11.4160   -0.9222   62.1714 H       1  ZINC000962730513    0.1300
     25 S25       -10.5632    3.2357   64.8433 S.3     1  ZINC000962730513    0.1900
     26 C26        -9.7200    3.5975   66.2817 C.2     1  ZINC000962730513   -0.2200
     27 C27        -8.7981    2.6636   66.5439 C.2     1  ZINC000962730513   -0.1500
     28 H28        -6.0251    1.7900   65.8939 H       1  ZINC000962730513    0.0600
     29 H29        -6.7458    1.3254   67.4537 H       1  ZINC000962730513    0.0500
     30 H30        -5.7776    0.1480   66.5348 H       1  ZINC000962730513    0.0600
     31 H31        -7.4816    0.1527   64.7334 H       1  ZINC000962730513    0.1000
     32 H32        -8.2023   -0.3118   66.2933 H       1  ZINC000962730513    0.0700
     33 H33        -8.3141   -0.4182   64.0858 H       1  ZINC000962730513    0.4000
     34 H34        -9.0303   -0.7921   58.7938 H       1  ZINC000962730513    0.0900
     35 H35        -8.2948   -2.0588   59.8239 H       1  ZINC000962730513    0.0500
     36 H36        -9.0939   -3.3414   58.1889 H       1  ZINC000962730513    0.1000
     37 H37       -10.0594   -4.3565   59.2870 H       1  ZINC000962730513    0.0700
     38 H38       -14.3801   -3.8296   57.3152 H       1  ZINC000962730513    0.1700
     39 H39       -14.3415   -3.0824   54.2637 H       1  ZINC000962730513    0.0800
     40 H40       -13.6224   -4.6395   53.7877 H       1  ZINC000962730513    0.0700
     41 H41       -14.8958   -4.5902   55.0304 H       1  ZINC000962730513    0.0700
     42 H42       -11.3221   -3.9473   54.3307 H       1  ZINC000962730513    0.1700
     43 H43       -11.8138   -2.9747   60.8875 H       1  ZINC000962730513    0.0800
     44 H44       -10.1312   -3.4988   61.2052 H       1  ZINC000962730513    0.0600
     45 H45        -9.9080    4.4625   66.9003 H       1  ZINC000962730513    0.1700
     46 H46        -8.1570    2.7097   67.4118 H       1  ZINC000962730513    0.1500
@<TRIPOS>BOND
     1     1     2    1
     2     1    28    1
     3     1    29    1
     4     1    30    1
     5     2     3    1
     6     2    31    1
     7     2    32    1
     8     3    27    1
     9     3     4    2
    10     4     5    1
    11     4    25    1
    12     5     6    2
    13     5     7   am
    14     7     8    1
    15     7    33    1
    16     8     9    1
    17     8    23    1
    18     8    10    1
    19    10    11    1
    20    10    23    1
    21    10    12    1
    22    12    13    1
    23    12    34    1
    24    12    35    1
    25    13    14    1
    26    13    22    1
    27    14    15    1
    28    14    36    1
    29    14    37    1
    30    15    21   ar
    31    15    16   ar
    32    16    17   ar
    33    17    18   ar
    34    17    38    1
    35    18    19    1
    36    18    20   ar
    37    19    39    1
    38    19    40    1
    39    19    41    1
    40    20    21   ar
    41    20    42    1
    42    22    23    1
    43    22    43    1
    44    22    44    1
    45    23    24    1
    46    25    26    1
    47    26    27    2
    48    26    45    1
    49    27    46    1
@<TRIPOS>SUBSTRUCTURE
     1 ZINC000962730513        1 TEMP              0 ****  ****    0 ROOT


##########                                Name:    ZINC001041713551
##########                DOCK_Rotatable_Bonds:                  10
##########                         Heavy_Atoms:                  22
##########                    Molecular_Weight:             330.448
##########                DOCK_Rotatable_Bonds:                  10
##########                       Formal_Charge:          -0.0100006
##########                     HBond_Acceptors:                   7
##########                        HBond_Donors:                   2
##########                         Heavy_Atoms:                  22
##########                          Grid_Score:          -33.132248
##########                     Grid_vdw_energy:          -31.343727
##########                      Grid_es_energy:           -1.788522
##########           Internal_energy_repulsive:            7.806608

@<TRIPOS>MOLECULE
ZINC001041713551
 48 49 1 0 0
SMALL
USER_CHARGES


@<TRIPOS>ATOM
      1 C1        -13.2701    0.6484   60.2163 C.3     1  ZINC001041713551   -0.1500
      2 C2        -12.4785    1.9013   59.8361 C.3     1  ZINC001041713551   -0.1100
      3 C3        -12.5563    2.9192   60.9757 C.3     1  ZINC001041713551   -0.1000
      4 S4        -12.1261    2.1089   62.5406 S.3     1  ZINC001041713551   -0.1800
      5 C5        -10.3199    1.9704   62.4453 C.3     1  ZINC001041713551   -0.1300
      6 C6         -9.9254    0.5162   62.4743 C.2     1  ZINC001041713551    0.5300
      7 O7         -9.7725   -0.0496   63.5361 O.2     1  ZINC001041713551   -0.5100
      8 N8         -9.7424   -0.1555   61.3202 N.am    1  ZINC001041713551   -0.7300
      9 C9         -9.3605   -1.5696   61.3484 C.3     1  ZINC001041713551    0.1000
     10 C10        -9.4169   -2.1414   59.9304 C.3     1  ZINC001041713551    0.0900
     11 O11        -8.5467   -1.4640   59.0215 O.3     1  ZINC001041713551   -0.5200
     12 C12        -9.3016   -3.6755   59.8757 C.3     1  ZINC001041713551    0.0900
     13 N13       -10.3698   -3.6192   58.8590 N.am    1  ZINC001041713551   -0.6400
     14 C14       -10.7545   -4.4228   57.8476 C.2     1  ZINC001041713551    0.5500
     15 O15       -10.1572   -5.4564   57.6336 O.2     1  ZINC001041713551   -0.5100
     16 C16       -11.9267   -4.0370   56.9827 C.3     1  ZINC001041713551    0.0800
     17 H17       -12.3048   -3.0638   57.2959 H       1  ZINC001041713551    0.0800
     18 C18       -13.0336   -5.0848   57.1261 C.3     1  ZINC001041713551   -0.1500
     19 C19       -14.1965   -4.7178   56.1990 C.3     1  ZINC001041713551   -0.1200
     20 C20       -13.6763   -4.6145   54.7620 C.3     1  ZINC001041713551   -0.1600
     21 C21       -12.5446   -3.5849   54.7100 C.3     1  ZINC001041713551    0.0600
     22 O22       -11.5100   -3.9696   55.6175 O.3     1  ZINC001041713551   -0.3600
     23 C23       -10.8477   -2.3297   59.3945 C.3     1  ZINC001041713551    0.1200
     24 H24       -14.3116    0.9165   60.3935 H       1  ZINC001041713551    0.0600
     25 H25       -13.2145   -0.0767   59.4044 H       1  ZINC001041713551    0.0600
     26 H26       -12.8479    0.2128   61.1219 H       1  ZINC001041713551    0.0600
     27 H27       -11.4369    1.6332   59.6590 H       1  ZINC001041713551    0.0700
     28 H28       -12.9006    2.3369   58.9304 H       1  ZINC001041713551    0.0700
     29 H29       -11.8576    3.7335   60.7840 H       1  ZINC001041713551    0.0800
     30 H30       -13.5692    3.3169   61.0390 H       1  ZINC001041713551    0.0800
     31 H31        -9.9693    2.4236   61.5181 H       1  ZINC001041713551    0.1100
     32 H32        -9.8707    2.4857   63.2943 H       1  ZINC001041713551    0.1100
     33 H33        -9.8635    0.2974   60.4710 H       1  ZINC001041713551    0.4000
     34 H34        -8.3472   -1.6645   61.7385 H       1  ZINC001041713551    0.0900
     35 H35       -10.0496   -2.1193   61.9895 H       1  ZINC001041713551    0.0900
     36 H36        -7.6310   -1.7739   59.0491 H       1  ZINC001041713551    0.3800
     37 H37        -8.3461   -4.0309   59.4898 H       1  ZINC001041713551    0.0900
     38 H38        -9.5998   -4.1717   60.7992 H       1  ZINC001041713551    0.1000
     39 H39       -12.6447   -6.0655   56.8518 H       1  ZINC001041713551    0.0800
     40 H40       -13.3835   -5.1063   58.1582 H       1  ZINC001041713551    0.0800
     41 H41       -14.9644   -5.4895   56.2542 H       1  ZINC001041713551    0.0700
     42 H42       -14.6177   -3.7599   56.5040 H       1  ZINC001041713551    0.0700
     43 H43       -13.3003   -5.5856   54.4399 H       1  ZINC001041713551    0.0700
     44 H44       -14.4858   -4.2997   54.1033 H       1  ZINC001041713551    0.0800
     45 H45       -12.1418   -3.5382   53.6982 H       1  ZINC001041713551    0.1000
     46 H46       -12.9307   -2.6057   54.9932 H       1  ZINC001041713551    0.0500
     47 H47       -11.6001   -2.4306   60.1767 H       1  ZINC001041713551    0.1100
     48 H48       -11.1266   -1.6105   58.6244 H       1  ZINC001041713551    0.1000
@<TRIPOS>BOND
     1     1     2    1
     2     1    24    1
     3     1    25    1
     4     1    26    1
     5     2     3    1
     6     2    27    1
     7     2    28    1
     8     3     4    1
     9     3    29    1
    10     3    30    1
    11     4     5    1
    12     5     6    1
    13     5    31    1
    14     5    32    1
    15     6     7    2
    16     6     8   am
    17     8     9    1
    18     8    33    1
    19     9    10    1
    20     9    34    1
    21     9    35    1
    22    10    23    1
    23    10    11    1
    24    10    12    1
    25    11    36    1
    26    12    13    1
    27    12    37    1
    28    12    38    1
    29    13    14   am
    30    13    23    1
    31    14    15    2
    32    14    16    1
    33    16    17    1
    34    16    22    1
    35    16    18    1
    36    18    19    1
    37    18    39    1
    38    18    40    1
    39    19    20    1
    40    19    41    1
    41    19    42    1
    42    20    21    1
    43    20    43    1
    44    20    44    1
    45    21    22    1
    46    21    45    1
    47    21    46    1
    48    23    47    1
    49    23    48    1
@<TRIPOS>SUBSTRUCTURE
     1 ZINC001041713551        1 TEMP              0 ****  ****    0 ROOT


##########                                Name:    ZINC000494558165
##########                DOCK_Rotatable_Bonds:                  11
##########                         Heavy_Atoms:                  28
##########                    Molecular_Weight:             409.506
##########                DOCK_Rotatable_Bonds:                  11
##########                       Formal_Charge:        -6.55651e-07
##########                     HBond_Acceptors:                   9
##########                        HBond_Donors:                   3
##########                         Heavy_Atoms:                  28
##########                          Grid_Score:          -33.121902
##########                     Grid_vdw_energy:          -31.046337
##########                      Grid_es_energy:           -2.075564
##########           Internal_energy_repulsive:           29.751074

@<TRIPOS>MOLECULE
ZINC000494558165
 55 57 1 0 0
SMALL
USER_CHARGES


@<TRIPOS>ATOM
      1 O1         -9.8553    0.2681   55.8602 O.2     1  ZINC000494558165   -0.4400
      2 C2         -9.5268   -0.0153   56.9922 C.2     1  ZINC000494558165    0.5100
      3 C3        -10.2692   -1.0886   57.7460 C.3     1  ZINC000494558165    0.0300
      4 N4        -10.2561   -0.7769   59.1815 N.3     1  ZINC000494558165   -0.5000
      5 C5        -11.0580    0.4201   59.4677 C.3     1  ZINC000494558165    0.0500
      6 C6        -10.5047    1.1192   60.7112 C.3     1  ZINC000494558165   -0.1100
      7 C7        -11.3182    2.3848   60.9890 C.3     1  ZINC000494558165    0.0800
      8 O8        -10.6924    3.1338   62.0328 O.3     1  ZINC000494558165   -0.5700
      9 C9        -10.7208   -1.9237   59.9733 C.3     1  ZINC000494558165    0.1200
     10 H10       -11.3574   -1.5850   60.7907 H       1  ZINC000494558165    0.1000
     11 C11        -9.5171   -2.7166   60.5252 C.3     1  ZINC000494558165   -0.1200
     12 C12        -9.2973   -3.7869   59.4350 C.3     1  ZINC000494558165   -0.0900
     13 C13       -10.6508   -3.9722   58.7833 C.ar    1  ZINC000494558165   -0.0900
     14 C14       -11.1287   -4.9959   57.9828 C.ar    1  ZINC000494558165   -0.1100
     15 C15       -12.4195   -4.9504   57.4928 C.ar    1  ZINC000494558165   -0.1100
     16 C16       -13.2374   -3.8801   57.8022 C.ar    1  ZINC000494558165   -0.1200
     17 C17       -12.7624   -2.8577   58.6007 C.ar    1  ZINC000494558165   -0.1000
     18 C18       -11.4712   -2.9002   59.0931 C.ar    1  ZINC000494558165   -0.1300
     19 N19        -8.4940    0.6255   57.5746 N.am    1  ZINC000494558165   -0.6900
     20 C20        -7.8300    1.5853   56.9004 C.2     1  ZINC000494558165    0.7000
     21 O21        -8.1635    1.8739   55.7679 O.2     1  ZINC000494558165   -0.5200
     22 N22        -6.7961    2.2250   57.4822 N.am    1  ZINC000494558165   -0.7300
     23 C23        -6.0755    3.2695   56.7502 C.3     1  ZINC000494558165    0.1700
     24 H24        -6.1139    3.0605   55.6810 H       1  ZINC000494558165    0.1200
     25 C25        -6.7198    4.6380   57.0332 C.3     1  ZINC000494558165   -0.1400
     26 C26        -5.7292    5.7109   56.5120 C.3     1  ZINC000494558165   -0.5800
     27 S27        -4.1088    5.0635   57.0726 S.o2    1  ZINC000494558165    2.4000
     28 O28        -3.1590    5.1997   56.0244 O.2     1  ZINC000494558165   -0.9300
     29 O29        -3.8166    5.5796   58.3639 O.2     1  ZINC000494558165   -0.9300
     30 C30        -4.6072    3.3112   57.2178 C.3     1  ZINC000494558165   -0.6200
     31 H31       -11.2996   -1.1337   57.3933 H       1  ZINC000494558165    0.0700
     32 H32        -9.7854   -2.0509   57.5786 H       1  ZINC000494558165    0.1200
     33 H33       -11.0115    1.1005   58.6175 H       1  ZINC000494558165    0.0900
     34 H34       -12.0936    0.1299   59.6446 H       1  ZINC000494558165    0.0400
     35 H35       -10.5742    0.4474   61.5668 H       1  ZINC000494558165    0.0700
     36 H36        -9.4617    1.3872   60.5434 H       1  ZINC000494558165    0.0800
     37 H37       -11.3662    2.9918   60.0848 H       1  ZINC000494558165    0.0500
     38 H38       -12.3272    2.1083   61.2950 H       1  ZINC000494558165    0.0400
     39 H39        -9.7855    3.4041   61.8336 H       1  ZINC000494558165    0.3800
     40 H40        -8.6412   -2.0748   60.6201 H       1  ZINC000494558165    0.0900
     41 H41        -9.7639   -3.1810   61.4799 H       1  ZINC000494558165    0.0800
     42 H42        -8.5696   -3.4371   58.7028 H       1  ZINC000494558165    0.0800
     43 H43        -8.9629   -4.7217   59.8848 H       1  ZINC000494558165    0.0800
     44 H44       -10.4901   -5.8324   57.7404 H       1  ZINC000494558165    0.1200
     45 H45       -12.7894   -5.7508   56.8690 H       1  ZINC000494558165    0.1300
     46 H46       -14.2467   -3.8428   57.4196 H       1  ZINC000494558165    0.1200
     47 H47       -13.4019   -2.0215   58.8416 H       1  ZINC000494558165    0.1200
     48 H48        -8.2285    0.3960   58.4789 H       1  ZINC000494558165    0.4100
     49 H49        -6.5292    1.9938   58.3856 H       1  ZINC000494558165    0.4000
     50 H50        -7.6701    4.7195   56.5055 H       1  ZINC000494558165    0.1100
     51 H51        -6.8755    4.7627   58.1048 H       1  ZINC000494558165    0.0900
     52 H52        -5.7650    5.7747   55.4244 H       1  ZINC000494558165    0.1400
     53 H53        -5.9359    6.6807   56.9646 H       1  ZINC000494558165    0.1400
     54 H54        -4.5286    2.9800   58.2533 H       1  ZINC000494558165    0.1500
     55 H55        -3.9894    2.6873   56.5720 H       1  ZINC000494558165    0.1500
@<TRIPOS>BOND
     1     1     2    2
     2     2     3    1
     3     2    19   am
     4     3     4    1
     5     3    31    1
     6     3    32    1
     7     4     5    1
     8     4     9    1
     9     5     6    1
    10     5    33    1
    11     5    34    1
    12     6     7    1
    13     6    35    1
    14     6    36    1
    15     7     8    1
    16     7    37    1
    17     7    38    1
    18     8    39    1
    19     9    10    1
    20     9    18    1
    21     9    11    1
    22    11    12    1
    23    11    40    1
    24    11    41    1
    25    12    13    1
    26    12    42    1
    27    12    43    1
    28    13    18   ar
    29    13    14   ar
    30    14    15   ar
    31    14    44    1
    32    15    16   ar
    33    15    45    1
    34    16    17   ar
    35    16    46    1
    36    17    18   ar
    37    17    47    1
    38    19    20   am
    39    19    48    1
    40    20    21    2
    41    20    22   am
    42    22    23    1
    43    22    49    1
    44    23    24    1
    45    23    30    1
    46    23    25    1
    47    25    26    1
    48    25    50    1
    49    25    51    1
    50    26    27    1
    51    26    52    1
    52    26    53    1
    53    27    28    2
    54    27    29    2
    55    27    30    1
    56    30    54    1
    57    30    55    1
@<TRIPOS>SUBSTRUCTURE
     1 ZINC000494558165        1 TEMP              0 ****  ****    0 ROOT


##########                                Name:    ZINC001018437438
##########                DOCK_Rotatable_Bonds:                   8
##########                         Heavy_Atoms:                  24
##########                    Molecular_Weight:              333.39
##########                DOCK_Rotatable_Bonds:                   8
##########                       Formal_Charge:        -4.17233e-07
##########                     HBond_Acceptors:                   8
##########                        HBond_Donors:                   4
##########                         Heavy_Atoms:                  24
##########                          Grid_Score:          -33.121563
##########                     Grid_vdw_energy:          -31.771742
##########                      Grid_es_energy:           -1.349821
##########           Internal_energy_repulsive:           87.508484

@<TRIPOS>MOLECULE
ZINC001018437438
 47 49 1 0 0
SMALL
USER_CHARGES


@<TRIPOS>ATOM
      1 C1        -11.9396   -3.3835   53.6082 C.3     1  ZINC001018437438   -0.1400
      2 C2        -12.0332   -2.8359   55.0337 C.3     1  ZINC001018437438    0.1400
      3 H3        -13.0692   -2.5849   55.2614 H       1  ZINC001018437438    0.0700
      4 C4        -11.5312   -3.8918   56.0236 C.3     1  ZINC001018437438   -0.1300
      5 C5        -11.4962   -3.2907   57.4305 C.3     1  ZINC001018437438   -0.1300
      6 C6        -10.5285   -2.1053   57.4567 C.3     1  ZINC001018437438    0.1300
      7 H7         -9.5351   -2.4400   57.1583 H       1  ZINC001018437438    0.1000
      8 N8        -10.4713   -1.5506   58.8114 N.am    1  ZINC001018437438   -0.7200
      9 C9         -9.5227   -1.9701   59.6719 C.2     1  ZINC001018437438    0.6000
     10 O10        -8.7131   -2.8083   59.3232 O.2     1  ZINC001018437438   -0.5100
     11 C11        -9.4663   -1.4143   61.0333 C.2     1  ZINC001018437438   -0.0400
     12 C12       -10.3281   -0.4834   61.5868 C.2     1  ZINC001018437438   -0.1400
     13 C13        -9.8646   -0.2781   62.8883 C.2     1  ZINC001018437438    0.0600
     14 C14       -10.4682    0.6521   63.9087 C.3     1  ZINC001018437438   -0.0800
     15 C15        -9.5134    1.3561   64.8750 C.3     1  ZINC001018437438   -0.1700
     16 C16       -10.1883    2.1484   63.7535 C.3     1  ZINC001018437438   -0.1600
     17 N17        -8.8137   -1.0377   63.0646 N.2     1  ZINC001018437438   -0.2600
     18 N18        -8.5565   -1.7180   62.0058 N.pl3   1  ZINC001018437438   -0.3800
     19 C19       -11.0192   -1.0291   56.4831 C.3     1  ZINC001018437438    0.1000
     20 N20       -11.1971   -1.6340   55.1556 N.am    1  ZINC001018437438   -0.6100
     21 C21       -10.6006   -1.0992   54.0718 C.2     1  ZINC001018437438    0.5200
     22 O22       -10.7514   -1.6104   52.9824 O.2     1  ZINC001018437438   -0.4800
     23 C23        -9.7460    0.1341   54.2137 C.3     1  ZINC001018437438   -0.1700
     24 C24        -9.1233    0.4695   52.8829 C.2     1  ZINC001018437438    0.5200
     25 N25        -8.0003   -0.1614   52.4864 N.am    1  ZINC001018437438   -0.8600
     26 O26        -9.6328    1.3070   52.1690 O.2     1  ZINC001018437438   -0.5000
     27 H27       -10.8929   -3.5395   53.3469 H       1  ZINC001018437438    0.0700
     28 H28       -12.4744   -4.3313   53.5472 H       1  ZINC001018437438    0.0500
     29 H29       -12.3848   -2.6700   52.9149 H       1  ZINC001018437438    0.0800
     30 H30       -12.2027   -4.7503   56.0113 H       1  ZINC001018437438    0.0900
     31 H31       -10.5283   -4.2097   55.7387 H       1  ZINC001018437438    0.0700
     32 H32       -12.4948   -2.9505   57.7050 H       1  ZINC001018437438    0.0700
     33 H33       -11.1628   -4.0474   58.1406 H       1  ZINC001018437438    0.0800
     34 H34       -11.1162   -0.8814   59.0891 H       1  ZINC001018437438    0.4000
     35 H35       -11.1782   -0.0151   61.1131 H       1  ZINC001018437438    0.1700
     36 H36       -11.4465    0.3602   64.2906 H       1  ZINC001018437438    0.1200
     37 H37        -9.8633    1.5272   65.8931 H       1  ZINC001018437438    0.1000
     38 H38        -8.4487    1.1463   64.7727 H       1  ZINC001018437438    0.1000
     39 H39        -9.5676    2.4598   62.9134 H       1  ZINC001018437438    0.1000
     40 H40       -10.9822    2.8406   64.0337 H       1  ZINC001018437438    0.1000
     41 H41        -7.8238   -2.3463   61.9093 H       1  ZINC001018437438    0.4400
     42 H42       -11.9717   -0.6290   56.8306 H       1  ZINC001018437438    0.0700
     43 H43       -10.2835   -0.2271   56.4238 H       1  ZINC001018437438    0.0900
     44 H44       -10.3641    0.9680   54.5461 H       1  ZINC001018437438    0.1200
     45 H45        -8.9604   -0.0505   54.9463 H       1  ZINC001018437438    0.1200
     46 H46        -7.5988    0.0551   51.6304 H       1  ZINC001018437438    0.4000
     47 H47        -7.5937   -0.8322   53.0570 H       1  ZINC001018437438    0.4000
@<TRIPOS>BOND
     1     1     2    1
     2     1    27    1
     3     1    28    1
     4     1    29    1
     5     2     3    1
     6     2    20    1
     7     2     4    1
     8     4     5    1
     9     4    30    1
    10     4    31    1
    11     5     6    1
    12     5    32    1
    13     5    33    1
    14     6     7    1
    15     6     8    1
    16     6    19    1
    17     8     9   am
    18     8    34    1
    19     9    10    2
    20     9    11    1
    21    11    18    1
    22    11    12    2
    23    12    13    1
    24    12    35    1
    25    13    14    1
    26    13    17    2
    27    14    16    1
    28    14    15    1
    29    14    36    1
    30    15    16    1
    31    15    37    1
    32    15    38    1
    33    16    39    1
    34    16    40    1
    35    17    18    1
    36    18    41    1
    37    19    20    1
    38    19    42    1
    39    19    43    1
    40    20    21   am
    41    21    22    2
    42    21    23    1
    43    23    24    1
    44    23    44    1
    45    23    45    1
    46    24    25   am
    47    24    26    2
    48    25    46    1
    49    25    47    1
@<TRIPOS>SUBSTRUCTURE
     1 ZINC001018437438        1 TEMP              0 ****  ****    0 ROOT


##########                                Name:    ZINC000301324012
##########                DOCK_Rotatable_Bonds:                   7
##########                         Heavy_Atoms:                  28
##########                    Molecular_Weight:               415.9
##########                DOCK_Rotatable_Bonds:                   7
##########                       Formal_Charge:          -0.0100002
##########                     HBond_Acceptors:                   8
##########                        HBond_Donors:                   2
##########                         Heavy_Atoms:                  28
##########                          Grid_Score:          -33.118759
##########                     Grid_vdw_energy:          -33.417839
##########                      Grid_es_energy:            0.299079
##########           Internal_energy_repulsive:           10.835904

@<TRIPOS>MOLECULE
ZINC000301324012
 46 48 1 0 0
SMALL
USER_CHARGES


@<TRIPOS>ATOM
      1 C1        -11.7925    1.3590   52.0786 C.3     1  ZINC000301324012   -0.1600
      2 C2        -10.6548    1.6590   53.0566 C.3     1  ZINC000301324012    0.2000
      3 H3        -10.8333    2.6207   53.5377 H       1  ZINC000301324012    0.1100
      4 N4        -10.5959    0.6072   54.0748 N.am    1  ZINC000301324012   -0.7100
      5 C5         -9.9643    0.8350   55.2433 C.2     1  ZINC000301324012    0.5500
      6 O6         -9.4448    1.9137   55.4532 O.2     1  ZINC000301324012   -0.5300
      7 C7         -9.9035   -0.2271   56.2700 C.ar    1  ZINC000301324012   -0.0700
      8 C8        -10.6521   -1.3949   56.1157 C.ar    1  ZINC000301324012   -0.1100
      9 C9        -10.5905   -2.3823   57.0771 C.ar    1  ZINC000301324012   -0.0200
     10 C10        -9.7890   -2.2167   58.1927 C.ar    1  ZINC000301324012   -0.6600
     11 S11        -9.7163   -3.4826   59.4162 S.o2    1  ZINC000301324012    2.6900
     12 O12       -10.3290   -4.6298   58.8435 O.2     1  ZINC000301324012   -0.9400
     13 O13        -8.3866   -3.4803   59.9174 O.2     1  ZINC000301324012   -0.9400
     14 N14       -10.6894   -3.0094   60.6698 N.am    1  ZINC000301324012   -1.0500
     15 C15       -10.4217   -1.8189   61.3511 C.ar    1  ZINC000301324012    0.1600
     16 C16        -9.2247   -1.6638   62.0373 C.ar    1  ZINC000301324012   -0.1600
     17 C17        -8.9631   -0.4857   62.7098 C.ar    1  ZINC000301324012   -0.0800
     18 C18        -9.8916    0.5386   62.7007 C.ar    1  ZINC000301324012   -0.1200
     19 C19       -11.0853    0.3884   62.0183 C.ar    1  ZINC000301324012   -0.0900
     20 C20       -11.3510   -0.7848   61.3384 C.ar    1  ZINC000301324012   -0.0600
     21 Cl21      -12.8493   -0.9730   60.4821 Cl      1  ZINC000301324012   -0.0600
     22 C22        -9.0439   -1.0617   58.3515 C.ar    1  ZINC000301324012   -0.0200
     23 C23        -9.0926   -0.0689   57.3949 C.ar    1  ZINC000301324012   -0.0800
     24 C24        -9.3480    1.7069   52.3076 C.ar    1  ZINC000301324012    0.1200
     25 C25        -8.8478    2.9234   51.8842 C.ar    1  ZINC000301324012   -0.1600
     26 C26        -7.6443    2.9566   51.1961 C.ar    1  ZINC000301324012   -0.0700
     27 C27        -6.9866    1.7595   50.9591 C.ar    1  ZINC000301324012   -0.1700
     28 C28        -7.5482    0.5810   51.4133 C.ar    1  ZINC000301324012    0.1100
     29 N29        -8.6923    0.5878   52.0688 N.ar    1  ZINC000301324012   -0.4900
     30 H30       -11.8364    2.1415   51.3211 H       1  ZINC000301324012    0.0700
     31 H31       -11.6140    0.3973   51.5976 H       1  ZINC000301324012    0.0600
     32 H32       -12.7377    1.3243   52.6204 H       1  ZINC000301324012    0.0700
     33 H33       -11.0115   -0.2532   53.9077 H       1  ZINC000301324012    0.4100
     34 H34       -11.2787   -1.5250   55.2456 H       1  ZINC000301324012    0.1400
     35 H35       -11.1693   -3.2865   56.9589 H       1  ZINC000301324012    0.1500
     36 H36       -11.4450   -3.5586   60.9312 H       1  ZINC000301324012    0.4300
     37 H37        -8.4990   -2.4636   62.0456 H       1  ZINC000301324012    0.1700
     38 H38        -8.0321   -0.3648   63.2437 H       1  ZINC000301324012    0.1400
     39 H39        -9.6845    1.4582   63.2279 H       1  ZINC000301324012    0.1400
     40 H40       -11.8084    1.1905   62.0132 H       1  ZINC000301324012    0.1400
     41 H41        -8.4200   -0.9388   59.2245 H       1  ZINC000301324012    0.1500
     42 H42        -8.5102    0.8321   57.5199 H       1  ZINC000301324012    0.1500
     43 H43        -9.3876    3.8368   52.0860 H       1  ZINC000301324012    0.1400
     44 H44        -7.2295    3.8928   50.8527 H       1  ZINC000301324012    0.1400
     45 H45        -6.0474    1.7479   50.4260 H       1  ZINC000301324012    0.1400
     46 H46        -7.0423   -0.3558   51.2323 H       1  ZINC000301324012    0.1600
@<TRIPOS>BOND
     1     1     2    1
     2     1    30    1
     3     1    31    1
     4     1    32    1
     5     2     3    1
     6     2     4    1
     7     2    24    1
     8     4     5   am
     9     4    33    1
    10     5     6    2
    11     5     7    1
    12     7    23   ar
    13     7     8   ar
    14     8     9   ar
    15     8    34    1
    16     9    10   ar
    17     9    35    1
    18    10    11    1
    19    10    22   ar
    20    11    12    2
    21    11    13    2
    22    11    14   am
    23    14    15    1
    24    14    36    1
    25    15    20   ar
    26    15    16   ar
    27    16    17   ar
    28    16    37    1
    29    17    18   ar
    30    17    38    1
    31    18    19   ar
    32    18    39    1
    33    19    20   ar
    34    19    40    1
    35    20    21    1
    36    22    23   ar
    37    22    41    1
    38    23    42    1
    39    24    29   ar
    40    24    25   ar
    41    25    26   ar
    42    25    43    1
    43    26    27   ar
    44    26    44    1
    45    27    28   ar
    46    27    45    1
    47    28    29   ar
    48    28    46    1
@<TRIPOS>SUBSTRUCTURE
     1 ZINC000301324012        1 TEMP              0 ****  ****    0 ROOT


##########                                Name:    ZINC000286156371
##########                DOCK_Rotatable_Bonds:                   7
##########                         Heavy_Atoms:                  25
##########                    Molecular_Weight:             350.418
##########                DOCK_Rotatable_Bonds:                   7
##########                       Formal_Charge:          0.00999908
##########                     HBond_Acceptors:                   8
##########                        HBond_Donors:                   2
##########                         Heavy_Atoms:                  25
##########                          Grid_Score:          -33.117111
##########                     Grid_vdw_energy:          -32.186169
##########                      Grid_es_energy:           -0.930944
##########           Internal_energy_repulsive:           25.992088

@<TRIPOS>MOLECULE
ZINC000286156371
 51 53 1 0 0
SMALL
USER_CHARGES


@<TRIPOS>ATOM
      1 C1         -0.7074    0.4118   44.9193 C.3     1  <0>        -0.1800
      2 C2         -1.4539    0.9670   46.1340 C.3     1  <0>         0.1400
      3 C3         -2.7091    1.7068   45.6669 C.3     1  <0>        -0.1800
      4 C4         -1.8550   -0.1856   47.0567 C.3     1  <0>        -0.1400
      5 O5         -0.5905    1.8857   46.8542 O.3     1  <0>        -0.3600
      6 C6          0.3821    1.3440   47.6115 C.2     1  <0>         0.6800
      7 O7          0.9672    0.3501   47.2290 O.2     1  <0>        -0.5600
      8 N8          0.7066    1.9041   48.7935 N.am    1  <0>        -0.5800
      9 C9          1.7463    1.4172   49.7184 C.3     1  <0>         0.0700
     10 C10         2.1551    2.6612   50.5460 C.3     1  <0>         0.0900
     11 H11         2.5652    2.3696   51.5129 H       1  <0>         0.0900
     12 O12         3.0817    3.4748   49.8239 O.3     1  <0>        -0.5500
     13 C13         0.7928    3.3843   50.7149 C.3     1  <0>        -0.1200
     14 C14         0.0870    3.1057   49.3712 C.3     1  <0>         0.1500
     15 H15         0.2176    3.9551   48.7008 H       1  <0>         0.1100
     16 C16        -1.3811    2.8586   49.6051 C.2     1  <0>         0.5200
     17 O17        -2.1926    3.1858   48.7652 O.2     1  <0>        -0.4900
     18 N18        -1.7924    2.2740   50.7478 N.am    1  <0>        -0.6300
     19 C19        -3.1576    2.0427   50.9647 C.2     1  <0>         0.3000
     20 N20        -3.8988    1.1566   50.3386 N.2     1  <0>        -0.3200
     21 N21        -5.1975    1.2415   50.8452 N.pl3   1  <0>        -0.3600
     22 C22        -6.3631    0.4454   50.4486 C.3     1  <0>         0.1400
     23 C23        -7.4356    0.5644   51.5364 C.3     1  <0>        -0.1400
     24 C24        -7.6729    2.0417   51.8630 C.3     1  <0>        -0.1300
     25 C25        -6.4391    2.6041   52.5810 C.3     1  <0>        -0.0600
     26 C26        -5.2145    2.2063   51.7941 C.2     1  <0>         0.0900
     27 C27        -3.9709    2.7140   51.8943 C.2     1  <0>        -0.2600
     28 H28        -0.4217    1.2329   44.2618 H       1  <0>         0.0900
     29 H29         0.1867   -0.1153   45.2521 H       1  <0>         0.0600
     30 H30        -1.3556   -0.2779   44.3785 H       1  <0>         0.0700
     31 H31        -3.3572    1.0172   45.1262 H       1  <0>         0.0700
     32 H32        -3.2409    2.1023   46.5322 H       1  <0>         0.0600
     33 H33        -2.4234    2.5280   45.0095 H       1  <0>         0.0900
     34 H34        -0.9608   -0.7127   47.3895 H       1  <0>         0.0700
     35 H35        -2.3868    0.2099   47.9220 H       1  <0>         0.0700
     36 H36        -2.5032   -0.8753   46.5159 H       1  <0>         0.0800
     37 H37         1.3413    0.6437   50.3710 H       1  <0>         0.0800
     38 H38         2.6013    1.0348   49.1608 H       1  <0>         0.0900
     39 H39         3.4556    4.2003   50.3427 H       1  <0>         0.3900
     40 H40         0.2304    2.9583   51.5459 H       1  <0>         0.1000
     41 H41         0.9396    4.4552   50.8561 H       1  <0>         0.1100
     42 H42        -1.1435    2.0134   51.4201 H       1  <0>         0.4200
     43 H43        -6.7573    0.8205   49.5041 H       1  <0>         0.0800
     44 H44        -6.0711   -0.5986   50.3359 H       1  <0>         0.0900
     45 H45        -8.3642    0.1174   51.1812 H       1  <0>         0.0900
     46 H46        -7.1021    0.0432   52.4338 H       1  <0>         0.0800
     47 H47        -7.8414    2.5963   50.9398 H       1  <0>         0.0700
     48 H48        -8.5452    2.1362   52.5098 H       1  <0>         0.0800
     49 H49        -6.5065    3.6908   52.6318 H       1  <0>         0.0900
     50 H50        -6.3794    2.1911   53.5879 H       1  <0>         0.0900
     51 H51        -3.6556    3.4981   52.5668 H       1  <0>         0.1700
@<TRIPOS>BOND
     1     1     2    1
     2     1    28    1
     3     1    29    1
     4     1    30    1
     5     2     3    1
     6     2     4    1
     7     2     5    1
     8     3    31    1
     9     3    32    1
    10     3    33    1
    11     4    34    1
    12     4    35    1
    13     4    36    1
    14     5     6    1
    15     6     7    2
    16     6     8   am
    17     8    14    1
    18     8     9    1
    19     9    10    1
    20     9    37    1
    21     9    38    1
    22    10    11    1
    23    10    12    1
    24    10    13    1
    25    12    39    1
    26    13    14    1
    27    13    40    1
    28    13    41    1
    29    14    15    1
    30    14    16    1
    31    16    17    2
    32    16    18   am
    33    18    19    1
    34    18    42    1
    35    19    27    1
    36    19    20    2
    37    20    21    1
    38    21    26    1
    39    21    22    1
    40    22    23    1
    41    22    43    1
    42    22    44    1
    43    23    24    1
    44    23    45    1
    45    23    46    1
    46    24    25    1
    47    24    47    1
    48    24    48    1
    49    25    26    1
    50    25    49    1
    51    25    50    1
    52    26    27    2
    53    27    51    1
@<TRIPOS>SUBSTRUCTURE
     1 <0>         1 TEMP              0 ****  ****    0 ROOT


##########                                Name:    ZINC000151820600
##########                DOCK_Rotatable_Bonds:                  10
##########                         Heavy_Atoms:                  25
##########                    Molecular_Weight:             388.915
##########                DOCK_Rotatable_Bonds:                  10
##########                       Formal_Charge:           0.0499998
##########                     HBond_Acceptors:                   8
##########                        HBond_Donors:                   2
##########                         Heavy_Atoms:                  25
##########                          Grid_Score:          -33.104191
##########                     Grid_vdw_energy:          -32.205753
##########                      Grid_es_energy:           -0.898439
##########           Internal_energy_repulsive:           14.215299

@<TRIPOS>MOLECULE
ZINC000151820600
 50 50 1 0 0
SMALL
USER_CHARGES


@<TRIPOS>ATOM
      1 C1        -17.1280    0.2066   60.6573 C.3     1  ZINC000151820600   -0.4900
      2 S2        -17.1552   -0.7112   59.0928 S.o     1  ZINC000151820600    1.2500
      3 O3        -18.4361   -1.2989   58.9107 O.2     1  ZINC000151820600   -0.8500
      4 C4        -15.9243   -2.0158   59.3637 C.3     1  ZINC000151820600   -0.4500
      5 C5        -15.8265   -2.8921   58.1134 C.3     1  ZINC000151820600   -0.1100
      6 C6        -14.7873   -3.9918   58.3413 C.3     1  ZINC000151820600    0.1200
      7 N7        -13.4512   -3.4706   58.0423 N.am    1  ZINC000151820600   -0.7200
      8 C8        -12.5616   -4.2366   57.3802 C.2     1  ZINC000151820600    0.5200
      9 O9        -12.8669   -5.3580   57.0332 O.2     1  ZINC000151820600   -0.5200
     10 C10       -11.1879   -3.6998   57.0711 C.3     1  ZINC000151820600    0.1900
     11 H11       -10.5985   -4.4725   56.5774 H       1  ZINC000151820600    0.1300
     12 N12       -11.3054   -2.5365   56.1883 N.am    1  ZINC000151820600   -0.6900
     13 C13       -11.0567   -2.6633   54.8697 C.2     1  ZINC000151820600    0.6600
     14 O14       -10.7336   -3.7421   54.4134 O.2     1  ZINC000151820600   -0.5600
     15 O15       -11.1662   -1.5946   54.0582 O.3     1  ZINC000151820600   -0.3600
     16 C16       -12.2920   -1.5758   53.1414 C.3     1  ZINC000151820600    0.1400
     17 C17       -11.9696   -2.4394   51.9202 C.3     1  ZINC000151820600   -0.1800
     18 C18       -13.5322   -2.1303   53.8451 C.3     1  ZINC000151820600   -0.1400
     19 C19       -12.5603   -0.1380   52.6926 C.3     1  ZINC000151820600   -0.1800
     20 C20       -10.5081   -3.2913   58.3525 C.ar    1  ZINC000151820600   -0.1000
     21 C21        -9.5153   -4.0874   58.8921 C.ar    1  ZINC000151820600   -0.0900
     22 C22        -8.8907   -3.7129   60.0674 C.ar    1  ZINC000151820600   -0.1000
     23 C23        -9.2591   -2.5428   60.7037 C.ar    1  ZINC000151820600   -0.1000
     24 C24       -10.2530   -1.7455   60.1639 C.ar    1  ZINC000151820600   -0.0300
     25 Cl25      -10.7160   -0.2751   60.9622 Cl      1  ZINC000151820600   -0.0600
     26 C26       -10.8735   -2.1178   58.9850 C.ar    1  ZINC000151820600   -0.0900
     27 H27       -17.3986   -0.4613   61.4751 H       1  ZINC000151820600    0.0800
     28 H28       -16.1273    0.6036   60.8283 H       1  ZINC000151820600    0.1100
     29 H29       -17.8418    1.0290   60.6086 H       1  ZINC000151820600    0.1100
     30 H30       -14.9538   -1.5632   59.5670 H       1  ZINC000151820600    0.1200
     31 H31       -16.2250   -2.6281   60.2138 H       1  ZINC000151820600    0.0900
     32 H32       -16.7967   -3.3455   57.9106 H       1  ZINC000151820600    0.0800
     33 H33       -15.5268   -2.2796   57.2630 H       1  ZINC000151820600    0.0900
     34 H34       -14.8259   -4.3183   59.3806 H       1  ZINC000151820600    0.0800
     35 H35       -15.0026   -4.8365   57.6869 H       1  ZINC000151820600    0.0700
     36 H36       -13.2067   -2.5742   58.3209 H       1  ZINC000151820600    0.4000
     37 H37       -11.5621   -1.6750   56.5528 H       1  ZINC000151820600    0.4200
     38 H38       -11.7784   -3.4639   52.2400 H       1  ZINC000151820600    0.0600
     39 H39       -12.8147   -2.4254   51.2320 H       1  ZINC000151820600    0.0700
     40 H40       -11.0861   -2.0444   51.4188 H       1  ZINC000151820600    0.0900
     41 H41       -13.7619   -1.5151   54.7151 H       1  ZINC000151820600    0.0700
     42 H42       -14.3773   -2.1163   53.1569 H       1  ZINC000151820600    0.0800
     43 H43       -13.3410   -3.1547   54.1649 H       1  ZINC000151820600    0.0700
     44 H44       -11.6768    0.2571   52.1912 H       1  ZINC000151820600    0.0900
     45 H45       -13.4054   -0.1239   52.0043 H       1  ZINC000151820600    0.0700
     46 H46       -12.7900    0.4773   53.5625 H       1  ZINC000151820600    0.0600
     47 H47        -9.2275   -5.0023   58.3956 H       1  ZINC000151820600    0.1300
     48 H48        -8.1150   -4.3353   60.4887 H       1  ZINC000151820600    0.1400
     49 H49        -8.7718   -2.2509   61.6222 H       1  ZINC000151820600    0.1400
     50 H50       -11.6493   -1.4959   58.5632 H       1  ZINC000151820600    0.1400
@<TRIPOS>BOND
     1     1     2    1
     2     1    27    1
     3     1    28    1
     4     1    29    1
     5     2     3    2
     6     2     4    1
     7     4     5    1
     8     4    30    1
     9     4    31    1
    10     5     6    1
    11     5    32    1
    12     5    33    1
    13     6     7    1
    14     6    34    1
    15     6    35    1
    16     7     8   am
    17     7    36    1
    18     8     9    2
    19     8    10    1
    20    10    11    1
    21    10    12    1
    22    10    20    1
    23    12    13   am
    24    12    37    1
    25    13    14    2
    26    13    15    1
    27    15    16    1
    28    16    17    1
    29    16    18    1
    30    16    19    1
    31    17    38    1
    32    17    39    1
    33    17    40    1
    34    18    41    1
    35    18    42    1
    36    18    43    1
    37    19    44    1
    38    19    45    1
    39    19    46    1
    40    20    26   ar
    41    20    21   ar
    42    21    22   ar
    43    21    47    1
    44    22    23   ar
    45    22    48    1
    46    23    24   ar
    47    23    49    1
    48    24    25    1
    49    24    26   ar
    50    26    50    1
@<TRIPOS>SUBSTRUCTURE
     1 ZINC000151820600        1 TEMP              0 ****  ****    0 ROOT


##########                                Name:    ZINC000245764166
##########                DOCK_Rotatable_Bonds:                   8
##########                         Heavy_Atoms:                  26
##########                    Molecular_Weight:             359.512
##########                DOCK_Rotatable_Bonds:                   8
##########                       Formal_Charge:          -0.0100008
##########                     HBond_Acceptors:                   5
##########                        HBond_Donors:                   2
##########                         Heavy_Atoms:                  26
##########                          Grid_Score:          -33.057922
##########                     Grid_vdw_energy:          -31.680475
##########                      Grid_es_energy:           -1.377446
##########           Internal_energy_repulsive:           32.994644

@<TRIPOS>MOLECULE
ZINC000245764166
 59 61 1 0 0
SMALL
USER_CHARGES


@<TRIPOS>ATOM
      1 C1         -8.3113    1.3210   53.6339 C.3     1  ZINC000245764166    0.0200
      2 N2         -7.6686    2.4427   54.3316 N.3     1  ZINC000245764166   -0.5300
      3 C3         -7.2017    3.4578   53.3778 C.3     1  ZINC000245764166    0.0600
      4 C4         -6.2048    2.8381   52.4326 C.ar    1  ZINC000245764166   -0.0800
      5 C5         -4.8622    2.8160   52.7612 C.ar    1  ZINC000245764166   -0.1000
      6 C6         -3.9478    2.2477   51.8942 C.ar    1  ZINC000245764166   -0.1200
      7 C7         -4.3760    1.7009   50.6990 C.ar    1  ZINC000245764166   -0.1200
      8 C8         -5.7187    1.7221   50.3709 C.ar    1  ZINC000245764166   -0.1200
      9 C9         -6.6337    2.2867   51.2398 C.ar    1  ZINC000245764166   -0.1200
     10 C10        -8.5745    3.0323   55.3264 C.3     1  ZINC000245764166    0.0500
     11 C11        -7.8615    3.1189   56.6773 C.3     1  ZINC000245764166    0.1900
     12 C12        -6.5226    2.3830   56.5955 C.3     1  ZINC000245764166   -0.1600
     13 C13        -7.6157    4.5869   57.0312 C.3     1  ZINC000245764166   -0.1500
     14 N14        -8.6961    2.5007   57.7105 N.am    1  ZINC000245764166   -0.7400
     15 C15        -9.0929    1.2194   57.5788 C.2     1  ZINC000245764166    0.7000
     16 O16        -8.7595    0.5770   56.6019 O.2     1  ZINC000245764166   -0.5800
     17 N17        -9.8594    0.6502   58.5301 N.am    1  ZINC000245764166   -0.7500
     18 C18       -10.2922   -0.7421   58.3861 C.3     1  ZINC000245764166    0.1800
     19 H19        -9.4315   -1.3608   58.1326 H       1  ZINC000245764166    0.0900
     20 C20       -11.3246   -0.8338   57.2653 C.3     1  ZINC000245764166   -0.1300
     21 C21       -11.7227   -2.3030   57.0861 C.3     1  ZINC000245764166   -0.1100
     22 C22       -12.3941   -2.7801   58.3738 C.3     1  ZINC000245764166   -0.1100
     23 C23       -11.4697   -2.6419   59.5606 C.3     1  ZINC000245764166    0.0900
     24 H24       -12.0216   -2.8796   60.4700 H       1  ZINC000245764166    0.0600
     25 O25       -10.3191   -3.4937   59.4786 O.3     1  ZINC000245764166   -0.3600
     26 C26        -9.3826   -2.9984   60.4560 C.3     1  ZINC000245764166    0.0500
     27 C27        -9.6844   -1.5001   60.6625 C.3     1  ZINC000245764166   -0.1500
     28 C28       -10.8865   -1.2244   59.7111 C.3     1  ZINC000245764166   -0.1300
     29 H29       -11.6035   -0.5210   60.1345 H       1  ZINC000245764166    0.1000
     30 H30        -7.6130    0.8919   52.9153 H       1  ZINC000245764166    0.0800
     31 H31        -8.6001    0.5599   54.3587 H       1  ZINC000245764166    0.0700
     32 H32        -9.1977    1.6788   53.1100 H       1  ZINC000245764166    0.0200
     33 H33        -8.0501    3.8411   52.8109 H       1  ZINC000245764166    0.0400
     34 H34        -6.7279    4.2757   53.9206 H       1  ZINC000245764166    0.1100
     35 H35        -4.5278    3.2432   53.6950 H       1  ZINC000245764166    0.1200
     36 H36        -2.8987    2.2311   52.1505 H       1  ZINC000245764166    0.1200
     37 H37        -3.6614    1.2575   50.0214 H       1  ZINC000245764166    0.1200
     38 H38        -6.0531    1.2952   49.4370 H       1  ZINC000245764166    0.1200
     39 H39        -7.6826    2.3032   50.9835 H       1  ZINC000245764166    0.1200
     40 H40        -8.8663    4.0321   55.0048 H       1  ZINC000245764166    0.0400
     41 H41        -9.4629    2.4082   55.4240 H       1  ZINC000245764166    0.1000
     42 H42        -5.9016    2.8430   55.8268 H       1  ZINC000245764166    0.0700
     43 H43        -6.0146    2.4446   57.5579 H       1  ZINC000245764166    0.0800
     44 H44        -6.6976    1.3371   56.3434 H       1  ZINC000245764166    0.0500
     45 H45        -8.5701    5.0822   57.2103 H       1  ZINC000245764166    0.0600
     46 H46        -7.0014    4.6462   57.9297 H       1  ZINC000245764166    0.0800
     47 H47        -7.1006    5.0783   56.2058 H       1  ZINC000245764166    0.0600
     48 H48        -8.9631    3.0135   58.4894 H       1  ZINC000245764166    0.3900
     49 H49       -10.1245    1.1622   59.3101 H       1  ZINC000245764166    0.3900
     50 H50       -12.2039   -0.2461   57.5288 H       1  ZINC000245764166    0.0600
     51 H51       -10.8930   -0.4561   56.3384 H       1  ZINC000245764166    0.0700
     52 H52       -12.4190   -2.3959   56.2527 H       1  ZINC000245764166    0.0700
     53 H53       -10.8338   -2.9032   56.8913 H       1  ZINC000245764166    0.0700
     54 H54       -13.2912   -2.1864   58.5494 H       1  ZINC000245764166    0.0800
     55 H55       -12.6768   -3.8269   58.2619 H       1  ZINC000245764166    0.0700
     56 H56        -9.5098   -3.5350   61.3962 H       1  ZINC000245764166    0.0600
     57 H57        -8.3636   -3.1243   60.0901 H       1  ZINC000245764166    0.0800
     58 H58        -9.9642   -1.3056   61.6979 H       1  ZINC000245764166    0.0800
     59 H59        -8.8243   -0.8941   60.3777 H       1  ZINC000245764166    0.0800
@<TRIPOS>BOND
     1     1     2    1
     2     1    30    1
     3     1    31    1
     4     1    32    1
     5     2     3    1
     6     2    10    1
     7     3     4    1
     8     3    33    1
     9     3    34    1
    10     4     9   ar
    11     4     5   ar
    12     5     6   ar
    13     5    35    1
    14     6     7   ar
    15     6    36    1
    16     7     8   ar
    17     7    37    1
    18     8     9   ar
    19     8    38    1
    20     9    39    1
    21    10    11    1
    22    10    40    1
    23    10    41    1
    24    11    12    1
    25    11    13    1
    26    11    14    1
    27    12    42    1
    28    12    43    1
    29    12    44    1
    30    13    45    1
    31    13    46    1
    32    13    47    1
    33    14    15   am
    34    14    48    1
    35    15    16    2
    36    15    17   am
    37    17    18    1
    38    17    49    1
    39    18    19    1
    40    18    28    1
    41    18    20    1
    42    20    21    1
    43    20    50    1
    44    20    51    1
    45    21    22    1
    46    21    52    1
    47    21    53    1
    48    22    23    1
    49    22    54    1
    50    22    55    1
    51    23    24    1
    52    23    28    1
    53    23    25    1
    54    25    26    1
    55    26    27    1
    56    26    56    1
    57    26    57    1
    58    27    28    1
    59    27    58    1
    60    27    59    1
    61    28    29    1
@<TRIPOS>SUBSTRUCTURE
     1 ZINC000245764166        1 TEMP              0 ****  ****    0 ROOT


##########                                Name:    ZINC001342629575
##########                DOCK_Rotatable_Bonds:                   9
##########                         Heavy_Atoms:                  29
##########                    Molecular_Weight:             396.533
##########                DOCK_Rotatable_Bonds:                   9
##########                       Formal_Charge:         -0.00999976
##########                     HBond_Acceptors:                   6
##########                        HBond_Donors:                   0
##########                         Heavy_Atoms:                  29
##########                          Grid_Score:          -33.045963
##########                     Grid_vdw_energy:          -32.662712
##########                      Grid_es_energy:           -0.383253
##########           Internal_energy_repulsive:           20.337629

@<TRIPOS>MOLECULE
ZINC001342629575
 61 64 1 0 0
SMALL
USER_CHARGES


@<TRIPOS>ATOM
      1 C1        -14.5113   -2.0223   52.5769 C.2     1  ZINC001342629575   -0.1800
      2 C2        -13.5231   -2.7273   53.0696 C.2     1  ZINC001342629575   -0.1600
      3 C3        -12.1079   -2.4485   52.6334 C.3     1  ZINC001342629575   -0.0800
      4 C4        -11.5189   -1.3312   53.4969 C.3     1  ZINC001342629575    0.0500
      5 H5        -12.2388   -0.5167   53.5780 H       1  ZINC001342629575    0.0900
      6 C6        -11.2105   -1.8677   54.8709 C.2     1  ZINC001342629575    0.2000
      7 N7        -11.0383   -3.1190   55.1906 N.2     1  ZINC001342629575   -0.2700
      8 N8        -10.7907   -3.2228   56.4476 N.2     1  ZINC001342629575   -0.3000
      9 C9        -10.7918   -2.0334   57.0018 C.2     1  ZINC001342629575    0.3400
     10 N10       -10.5640   -1.7472   58.3385 N.3     1  ZINC001342629575   -0.4300
     11 C11        -9.1635   -2.0642   58.7196 C.3     1  ZINC001342629575    0.0400
     12 C12        -9.2041   -2.2207   60.2549 C.3     1  ZINC001342629575   -0.1200
     13 C13       -10.6670   -2.5846   60.5822 C.3     1  ZINC001342629575   -0.1200
     14 C14       -11.3873   -2.6175   59.2171 C.3     1  ZINC001342629575    0.0700
     15 H15       -11.4151   -3.6346   58.8263 H       1  ZINC001342629575    0.0900
     16 C16       -12.8054   -2.0584   59.3485 C.3     1  ZINC001342629575    0.1000
     17 H17       -13.3685   -2.2610   58.4374 H       1  ZINC001342629575    0.0700
     18 C18       -12.7472   -0.5365   59.6007 C.3     1  ZINC001342629575   -0.1400
     19 C19       -13.8853   -0.3303   60.6369 C.3     1  ZINC001342629575   -0.1600
     20 C20       -13.7943   -1.6519   61.4407 C.3     1  ZINC001342629575    0.0500
     21 O21       -13.4629   -2.6600   60.4698 O.3     1  ZINC001342629575   -0.3700
     22 N22       -11.0538   -1.1311   56.0123 N.pl3   1  ZINC001342629575   -0.4600
     23 C23       -11.1558    0.3241   56.1467 C.3     1  ZINC001342629575    0.1100
     24 C24        -9.7527    0.9278   56.2349 C.3     1  ZINC001342629575    0.0500
     25 O25        -9.8527    2.3450   56.3883 O.3     1  ZINC001342629575   -0.3800
     26 C26        -8.5911    3.0134   56.4493 C.3     1  ZINC001342629575    0.0300
     27 C27       -10.2517   -0.8200   52.8613 C.ar    1  ZINC001342629575   -0.0900
     28 C28        -9.3037   -1.7117   52.3953 C.ar    1  ZINC001342629575   -0.0900
     29 C29        -8.1414   -1.2428   51.8121 C.ar    1  ZINC001342629575   -0.1200
     30 C30        -7.9272    0.1178   51.6945 C.ar    1  ZINC001342629575   -0.1200
     31 C31        -8.8756    1.0095   52.1597 C.ar    1  ZINC001342629575   -0.1200
     32 C32       -10.0399    0.5405   52.7389 C.ar    1  ZINC001342629575   -0.1100
     33 H33       -15.5256   -2.2222   52.8894 H       1  ZINC001342629575    0.1000
     34 H34       -14.3112   -1.2383   51.8616 H       1  ZINC001342629575    0.1000
     35 H35       -13.7228   -3.5084   53.7882 H       1  ZINC001342629575    0.1000
     36 H36       -11.5078   -3.3511   52.7484 H       1  ZINC001342629575    0.0900
     37 H37       -12.1039   -2.1402   51.5880 H       1  ZINC001342629575    0.0800
     38 H38        -8.8434   -2.9948   58.2510 H       1  ZINC001342629575    0.0600
     39 H39        -8.4989   -1.2475   58.4381 H       1  ZINC001342629575    0.0800
     40 H40        -8.5350   -3.0206   60.5718 H       1  ZINC001342629575    0.0800
     41 H41        -8.9301   -1.2831   60.7384 H       1  ZINC001342629575    0.0800
     42 H42       -10.7160   -3.5632   61.0597 H       1  ZINC001342629575    0.0800
     43 H43       -11.1109   -1.8256   61.2264 H       1  ZINC001342629575    0.0800
     44 H44       -11.7832   -0.2495   60.0209 H       1  ZINC001342629575    0.0900
     45 H45       -12.9522    0.0167   58.6841 H       1  ZINC001342629575    0.0800
     46 H46       -13.6855    0.5314   61.2739 H       1  ZINC001342629575    0.0800
     47 H47       -14.8531   -0.2361   60.1442 H       1  ZINC001342629575    0.0800
     48 H48       -13.0119   -1.5819   62.1965 H       1  ZINC001342629575    0.0600
     49 H49       -14.7531   -1.8778   61.9073 H       1  ZINC001342629575    0.0900
     50 H50       -11.6737    0.7337   55.2794 H       1  ZINC001342629575    0.1000
     51 H51       -11.7135    0.5673   57.0511 H       1  ZINC001342629575    0.1100
     52 H52        -9.2289    0.5056   57.0925 H       1  ZINC001342629575    0.0600
     53 H53        -9.2007    0.6990   55.3232 H       1  ZINC001342629575    0.0600
     54 H54        -8.7529    4.0851   56.5659 H       1  ZINC001342629575    0.0900
     55 H55        -8.0213    2.6374   57.2989 H       1  ZINC001342629575    0.0400
     56 H56        -8.0367    2.8278   55.5292 H       1  ZINC001342629575    0.0400
     57 H57        -9.4710   -2.7746   52.4871 H       1  ZINC001342629575    0.1300
     58 H58        -7.4005   -1.9395   51.4487 H       1  ZINC001342629575    0.1200
     59 H59        -7.0189    0.4842   51.2397 H       1  ZINC001342629575    0.1200
     60 H60        -8.7081    2.0724   52.0681 H       1  ZINC001342629575    0.1200
     61 H61       -10.7808    1.2372   53.1023 H       1  ZINC001342629575    0.1200
@<TRIPOS>BOND
     1     1     2    2
     2     1    33    1
     3     1    34    1
     4     2     3    1
     5     2    35    1
     6     3     4    1
     7     3    36    1
     8     3    37    1
     9     4     5    1
    10     4     6    1
    11     4    27    1
    12     6    22    1
    13     6     7    2
    14     7     8    1
    15     8     9    2
    16     9    10    1
    17     9    22    1
    18    10    14    1
    19    10    11    1
    20    11    12    1
    21    11    38    1
    22    11    39    1
    23    12    13    1
    24    12    40    1
    25    12    41    1
    26    13    14    1
    27    13    42    1
    28    13    43    1
    29    14    15    1
    30    14    16    1
    31    16    17    1
    32    16    21    1
    33    16    18    1
    34    18    19    1
    35    18    44    1
    36    18    45    1
    37    19    20    1
    38    19    46    1
    39    19    47    1
    40    20    21    1
    41    20    48    1
    42    20    49    1
    43    22    23    1
    44    23    24    1
    45    23    50    1
    46    23    51    1
    47    24    25    1
    48    24    52    1
    49    24    53    1
    50    25    26    1
    51    26    54    1
    52    26    55    1
    53    26    56    1
    54    27    32   ar
    55    27    28   ar
    56    28    29   ar
    57    28    57    1
    58    29    30   ar
    59    29    58    1
    60    30    31   ar
    61    30    59    1
    62    31    32   ar
    63    31    60    1
    64    32    61    1
@<TRIPOS>SUBSTRUCTURE
     1 ZINC001342629575        1 TEMP              0 ****  ****    0 ROOT


##########                                Name:    ZINC001000186632
##########                DOCK_Rotatable_Bonds:                   7
##########                         Heavy_Atoms:                  23
##########                    Molecular_Weight:             342.379
##########                DOCK_Rotatable_Bonds:                   7
##########                       Formal_Charge:          -0.0100001
##########                     HBond_Acceptors:                  11
##########                        HBond_Donors:                   2
##########                         Heavy_Atoms:                  23
##########                          Grid_Score:          -33.035809
##########                     Grid_vdw_energy:          -32.654934
##########                      Grid_es_energy:           -0.380875
##########           Internal_energy_repulsive:            6.135636

@<TRIPOS>MOLECULE
ZINC001000186632
 41 43 1 0 0
SMALL
USER_CHARGES


@<TRIPOS>ATOM
      1 O1        -14.9035   -3.2310   55.3346 O.2     1  ZINC001000186632   -0.5200
      2 C2        -14.1993   -3.9555   56.0054 C.2     1  ZINC001000186632    0.5300
      3 C3        -13.1666   -4.8286   55.3405 C.3     1  ZINC001000186632   -0.0500
      4 C4        -12.4935   -4.0574   54.2345 C.2     1  ZINC001000186632    0.2400
      5 N5        -11.9754   -4.5769   53.1527 N.2     1  ZINC001000186632   -0.3000
      6 N6        -11.4577   -3.5111   52.3986 N.pl3   1  ZINC001000186632   -0.4800
      7 C7        -11.7089   -2.3931   53.1014 C.2     1  ZINC001000186632    0.2700
      8 N8        -12.3353   -2.7349   54.1979 N.2     1  ZINC001000186632   -0.5400
      9 N9        -14.3364   -3.9756   57.3461 N.am    1  ZINC001000186632   -0.7100
     10 C10       -15.3403   -3.1268   57.9924 C.3     1  ZINC001000186632    0.1100
     11 C11       -15.4389   -3.3330   59.5149 C.3     1  ZINC001000186632    0.1000
     12 N12       -14.4295   -2.2620   59.6242 N.am    1  ZINC001000186632   -0.6500
     13 C13       -13.5066   -1.9244   60.5467 C.2     1  ZINC001000186632    0.5100
     14 O14       -13.3930   -2.5818   61.5596 O.2     1  ZINC001000186632   -0.5100
     15 C15       -12.6160   -0.7302   60.3196 C.3     1  ZINC001000186632    0.1500
     16 N16       -11.2202   -1.1689   60.2456 N.am    1  ZINC001000186632   -0.9800
     17 C17       -10.2488   -1.1718   61.3497 C.3     1  ZINC001000186632    0.0800
     18 C18        -9.2137   -2.2939   61.1417 C.3     1  ZINC001000186632   -0.1300
     19 C19        -8.8184   -2.1785   59.6411 C.3     1  ZINC001000186632   -0.6000
     20 S20       -10.4414   -1.7648   58.8938 S.o2    1  ZINC001000186632    2.5700
     21 O21       -11.1568   -2.9386   58.5334 O.2     1  ZINC001000186632   -0.9400
     22 O22       -10.3353   -0.6534   58.0146 O.2     1  ZINC001000186632   -0.9600
     23 C23       -14.8364   -1.7090   58.3179 C.3     1  ZINC001000186632    0.0900
     24 H24       -12.4218   -5.1346   56.0754 H       1  ZINC001000186632    0.1300
     25 H25       -13.6509   -5.7121   54.9247 H       1  ZINC001000186632    0.1200
     26 H26       -11.0079   -3.5701   51.5412 H       1  ZINC001000186632    0.4400
     27 H27       -11.4432   -1.3876   52.8099 H       1  ZINC001000186632    0.2200
     28 H28       -13.7704   -4.5522   57.8829 H       1  ZINC001000186632    0.4100
     29 H29       -16.3034   -3.1439   57.4823 H       1  ZINC001000186632    0.1200
     30 H30       -16.4098   -3.0660   59.9324 H       1  ZINC001000186632    0.1000
     31 H31       -15.0837   -4.3073   59.8502 H       1  ZINC001000186632    0.0900
     32 H32       -12.8935   -0.2424   59.3851 H       1  ZINC001000186632    0.1100
     33 H33       -12.7328   -0.0277   61.1447 H       1  ZINC001000186632    0.1100
     34 H34        -9.7370   -0.2100   61.3832 H       1  ZINC001000186632    0.0800
     35 H35       -10.7729   -1.3338   62.2916 H       1  ZINC001000186632    0.0900
     36 H36        -8.3440   -2.1329   61.7785 H       1  ZINC001000186632    0.1100
     37 H37        -9.6608   -3.2671   61.3443 H       1  ZINC001000186632    0.1000
     38 H38        -8.0942   -1.3790   59.4853 H       1  ZINC001000186632    0.1400
     39 H39        -8.4423   -3.1276   59.2592 H       1  ZINC001000186632    0.1400
     40 H40       -14.0002   -1.3868   57.6975 H       1  ZINC001000186632    0.0900
     41 H41       -15.6303   -0.9649   58.3838 H       1  ZINC001000186632    0.1100
@<TRIPOS>BOND
     1     1     2    2
     2     2     3    1
     3     2     9   am
     4     3     4    1
     5     3    24    1
     6     3    25    1
     7     4     8    1
     8     4     5    2
     9     5     6    1
    10     6     7    1
    11     6    26    1
    12     7     8    2
    13     7    27    1
    14     9    10    1
    15     9    28    1
    16    10    23    1
    17    10    11    1
    18    10    29    1
    19    11    12    1
    20    11    30    1
    21    11    31    1
    22    12    13   am
    23    12    23    1
    24    13    14    2
    25    13    15    1
    26    15    16    1
    27    15    32    1
    28    15    33    1
    29    16    20   am
    30    16    17    1
    31    17    18    1
    32    17    34    1
    33    17    35    1
    34    18    19    1
    35    18    36    1
    36    18    37    1
    37    19    20    1
    38    19    38    1
    39    19    39    1
    40    20    21    2
    41    20    22    2
    42    23    40    1
    43    23    41    1
@<TRIPOS>SUBSTRUCTURE
     1 ZINC001000186632        1 TEMP              0 ****  ****    0 ROOT


##########                                Name:    ZINC001067316277
##########                DOCK_Rotatable_Bonds:                   5
##########                         Heavy_Atoms:                  24
##########                    Molecular_Weight:             345.469
##########                DOCK_Rotatable_Bonds:                   5
##########                       Formal_Charge:          -0.0200007
##########                     HBond_Acceptors:                   7
##########                        HBond_Donors:                   2
##########                         Heavy_Atoms:                  24
##########                          Grid_Score:          -33.034447
##########                     Grid_vdw_energy:          -30.898226
##########                      Grid_es_energy:           -2.136220
##########           Internal_energy_repulsive:            7.933035

@<TRIPOS>MOLECULE
ZINC001067316277
 47 49 1 0 0
SMALL
USER_CHARGES


@<TRIPOS>ATOM
      1 C1        -10.8684   -2.2796   53.3257 C.3     1  ZINC001067316277   -0.1400
      2 S2        -11.6128   -3.9268   53.2310 S.3     1  ZINC001067316277   -0.0400
      3 C3        -12.2198   -4.0833   54.8777 C.ar    1  ZINC001067316277    0.1800
      4 C4        -13.1371   -5.0856   55.2028 C.ar    1  ZINC001067316277   -0.2400
      5 C5        -13.5856   -5.1706   56.5061 C.ar    1  ZINC001067316277    0.1900
      6 N6        -13.1365   -4.3058   57.4041 N.ar    1  ZINC001067316277   -0.5600
      7 C7        -12.2661   -3.3648   57.0681 C.ar    1  ZINC001067316277    0.5100
      8 N8        -11.8212   -2.4807   58.0355 N.3     1  ZINC001067316277   -0.4600
      9 C9        -12.9354   -2.0032   58.8643 C.3     1  ZINC001067316277    0.0700
     10 C10       -12.4324   -0.9224   59.8240 C.3     1  ZINC001067316277   -0.1300
     11 C11       -11.3274   -1.5062   60.7085 C.3     1  ZINC001067316277    0.1600
     12 H12       -11.7337   -2.3197   61.3095 H       1  ZINC001067316277    0.0900
     13 N13       -10.8026   -0.4607   61.5906 N.am    1  ZINC001067316277   -0.7200
     14 C14       -11.4916   -0.0990   62.6910 C.2     1  ZINC001067316277    0.5900
     15 O15       -12.5502   -0.6398   62.9512 O.2     1  ZINC001067316277   -0.5300
     16 C16       -10.9653    0.9465   63.5750 C.2     1  ZINC001067316277   -0.0600
     17 C17       -11.5442    1.3927   64.7440 C.2     1  ZINC001067316277   -0.1000
     18 C18       -10.7107    2.3894   65.2608 C.2     1  ZINC001067316277   -0.2100
     19 C19        -9.6605    2.5316   64.4172 C.2     1  ZINC001067316277    0.0300
     20 N20        -9.8005    1.6567   63.3916 N.pl3   1  ZINC001067316277   -0.5400
     21 C21       -10.2011   -2.0401   59.8192 C.3     1  ZINC001067316277   -0.0700
     22 C22        -9.5947   -0.8877   59.0159 C.3     1  ZINC001067316277   -0.1400
     23 C23        -9.1194   -2.6785   60.6929 C.3     1  ZINC001067316277   -0.1400
     24 C24       -10.7688   -3.0885   58.8598 C.3     1  ZINC001067316277    0.0800
     25 N25       -11.8071   -3.2526   55.8310 N.ar    1  ZINC001067316277   -0.5400
     26 H26       -11.6343   -1.5493   53.5869 H       1  ZINC001067316277    0.0900
     27 H27       -10.0887   -2.2765   54.0873 H       1  ZINC001067316277    0.0900
     28 H28       -10.4341   -2.0211   52.3600 H       1  ZINC001067316277    0.1000
     29 H29       -13.4880   -5.7780   54.4518 H       1  ZINC001067316277    0.1500
     30 H30       -14.2951   -5.9335   56.7905 H       1  ZINC001067316277    0.1700
     31 H31       -13.7124   -1.5867   58.2233 H       1  ZINC001067316277    0.1000
     32 H32       -13.3447   -2.8354   59.4370 H       1  ZINC001067316277    0.0500
     33 H33       -12.0355   -0.0838   59.2517 H       1  ZINC001067316277    0.0800
     34 H34       -13.2563   -0.5792   60.4496 H       1  ZINC001067316277    0.0800
     35 H35        -9.9594   -0.0288   61.3824 H       1  ZINC001067316277    0.3900
     36 H36       -12.4676    1.0393   65.1785 H       1  ZINC001067316277    0.1500
     37 H37       -10.8752    2.9472   66.1709 H       1  ZINC001067316277    0.1500
     38 H38        -8.8431    3.2262   64.5432 H       1  ZINC001067316277    0.1700
     39 H39        -9.1853    1.5524   62.6489 H       1  ZINC001067316277    0.4100
     40 H40        -9.1937   -0.1396   59.6997 H       1  ZINC001067316277    0.0500
     41 H41        -8.7931   -1.2683   58.3830 H       1  ZINC001067316277    0.0600
     42 H42       -10.3654   -0.4342   58.3927 H       1  ZINC001067316277    0.0700
     43 H43        -9.5516   -3.5002   61.2638 H       1  ZINC001067316277    0.0600
     44 H44        -8.3179   -3.0583   60.0592 H       1  ZINC001067316277    0.0600
     45 H45        -8.7180   -1.9316   61.3779 H       1  ZINC001067316277    0.0600
     46 H46       -11.1882   -3.9156   59.4325 H       1  ZINC001067316277    0.0600
     47 H47        -9.9721   -3.4604   58.2154 H       1  ZINC001067316277    0.1000
@<TRIPOS>BOND
     1     1     2    1
     2     1    26    1
     3     1    27    1
     4     1    28    1
     5     2     3    1
     6     3    25   ar
     7     3     4   ar
     8     4     5   ar
     9     4    29    1
    10     5     6   ar
    11     5    30    1
    12     6     7   ar
    13     7     8    1
    14     7    25   ar
    15     8    24    1
    16     8     9    1
    17     9    10    1
    18     9    31    1
    19     9    32    1
    20    10    11    1
    21    10    33    1
    22    10    34    1
    23    11    12    1
    24    11    13    1
    25    11    21    1
    26    13    14   am
    27    13    35    1
    28    14    15    2
    29    14    16    1
    30    16    20    1
    31    16    17    2
    32    17    18    1
    33    17    36    1
    34    18    19    2
    35    18    37    1
    36    19    20    1
    37    19    38    1
    38    20    39    1
    39    21    22    1
    40    21    23    1
    41    21    24    1
    42    22    40    1
    43    22    41    1
    44    22    42    1
    45    23    43    1
    46    23    44    1
    47    23    45    1
    48    24    46    1
    49    24    47    1
@<TRIPOS>SUBSTRUCTURE
     1 ZINC001067316277        1 TEMP              0 ****  ****    0 ROOT


##########                                Name:    ZINC000826324849
##########                DOCK_Rotatable_Bonds:                   4
##########                         Heavy_Atoms:                  27
##########                    Molecular_Weight:             395.374
##########                DOCK_Rotatable_Bonds:                   4
##########                       Formal_Charge:           0.0400001
##########                     HBond_Acceptors:                  13
##########                        HBond_Donors:                   1
##########                         Heavy_Atoms:                  27
##########                          Grid_Score:          -33.023823
##########                     Grid_vdw_energy:          -29.973614
##########                      Grid_es_energy:           -3.050208
##########           Internal_energy_repulsive:          104.053864

@<TRIPOS>MOLECULE
ZINC000826324849
 41 44 1 0 0
SMALL
USER_CHARGES


@<TRIPOS>ATOM
      1 C1        -16.8690   -2.6970   58.6494 C.3     1  ZINC000826324849   -0.0600
      2 C2        -15.8032   -3.4900   57.9376 C.2     1  ZINC000826324849    0.2000
      3 N3        -15.1523   -3.1302   56.8576 N.2     1  ZINC000826324849   -0.4600
      4 C4        -14.3089   -4.1428   56.5889 C.2     1  ZINC000826324849    0.1600
      5 C5        -13.3363   -4.2124   55.4400 C.3     1  ZINC000826324849    0.2200
      6 H6        -13.0895   -5.2533   55.2305 H       1  ZINC000826324849    0.1300
      7 C7        -13.9597   -3.5691   54.1960 C.3     1  ZINC000826324849    0.0600
      8 O8        -12.9691   -3.4720   53.1698 O.3     1  ZINC000826324849   -0.3600
      9 C9        -11.8581   -2.6376   53.5059 C.3     1  ZINC000826324849    0.0400
     10 C10       -11.1270   -3.2332   54.7144 C.3     1  ZINC000826324849    0.0800
     11 N11       -12.1115   -3.4719   55.7820 N.am    1  ZINC000826324849   -1.0100
     12 S12       -11.8494   -2.9221   57.3220 S.o2    1  ZINC000826324849    2.7100
     13 O13       -13.0416   -3.1834   58.0496 O.2     1  ZINC000826324849   -0.9300
     14 O14       -10.5759   -3.4164   57.7131 O.2     1  ZINC000826324849   -0.9300
     15 C15       -11.6962   -1.1691   57.2308 C.ar    1  ZINC000826324849   -0.5800
     16 C16       -12.3362   -0.4708   56.2272 C.ar    1  ZINC000826324849   -0.0400
     17 C17       -12.2176    0.9056   56.1532 C.ar    1  ZINC000826324849   -0.0800
     18 C18       -11.4574    1.5905   57.0830 C.ar    1  ZINC000826324849   -0.1100
     19 C19       -10.8114    0.9015   58.0932 C.ar    1  ZINC000826324849    0.1300
     20 F20       -10.0689    1.5709   59.0019 F       1  ZINC000826324849   -0.1100
     21 C21       -10.9334   -0.4857   58.1749 C.ar    1  ZINC000826324849    0.0500
     22 C22       -10.2433   -1.2318   59.2568 C.2     1  ZINC000826324849    0.1800
     23 N23        -8.9500   -1.4698   59.3479 N.2     1  ZINC000826324849   -0.2600
     24 N24        -8.7483   -2.1443   60.4274 N.pl3   1  ZINC000826324849   -0.2200
     25 N25        -9.8724   -2.3411   61.0229 N.2     1  ZINC000826324849   -0.0200
     26 N26       -10.8134   -1.7897   60.3343 N.2     1  ZINC000826324849   -0.2600
     27 N27       -14.4866   -5.0499   57.5022 N.2     1  ZINC000826324849   -0.3800
     28 O28       -15.3366   -4.6918   58.2900 O.3     1  ZINC000826324849    0.0900
     29 H29       -17.2184   -3.2555   59.5177 H       1  ZINC000826324849    0.1000
     30 H30       -16.4555   -1.7421   58.9739 H       1  ZINC000826324849    0.1100
     31 H31       -17.7037   -2.5199   57.9712 H       1  ZINC000826324849    0.1100
     32 H32       -14.7886   -4.1837   53.8450 H       1  ZINC000826324849    0.1200
     33 H33       -14.3244   -2.5727   54.4454 H       1  ZINC000826324849    0.0600
     34 H34       -11.1749   -2.5821   52.6583 H       1  ZINC000826324849    0.1200
     35 H35       -12.2152   -1.6378   53.7528 H       1  ZINC000826324849    0.0600
     36 H36       -10.6572   -4.1752   54.4317 H       1  ZINC000826324849    0.0900
     37 H37       -10.3675   -2.5343   55.0651 H       1  ZINC000826324849    0.1100
     38 H38       -12.9310   -1.0001   55.4974 H       1  ZINC000826324849    0.1400
     39 H39       -12.7205    1.4473   55.3658 H       1  ZINC000826324849    0.1500
     40 H40       -11.3677    2.6649   57.0200 H       1  ZINC000826324849    0.1500
     41 H41        -7.8849   -2.4553   60.7416 H       1  ZINC000826324849    0.4800
@<TRIPOS>BOND
     1     1     2    1
     2     1    29    1
     3     1    30    1
     4     1    31    1
     5     2    28    1
     6     2     3    2
     7     3     4    1
     8     4     5    1
     9     4    27    2
    10     5     6    1
    11     5    11    1
    12     5     7    1
    13     7     8    1
    14     7    32    1
    15     7    33    1
    16     8     9    1
    17     9    10    1
    18     9    34    1
    19     9    35    1
    20    10    11    1
    21    10    36    1
    22    10    37    1
    23    11    12   am
    24    12    13    2
    25    12    14    2
    26    12    15    1
    27    15    21   ar
    28    15    16   ar
    29    16    17   ar
    30    16    38    1
    31    17    18   ar
    32    17    39    1
    33    18    19   ar
    34    18    40    1
    35    19    20    1
    36    19    21   ar
    37    21    22    1
    38    22    26    1
    39    22    23    2
    40    23    24    1
    41    24    25    1
    42    24    41    1
    43    25    26    2
    44    27    28    1
@<TRIPOS>SUBSTRUCTURE
     1 ZINC000826324849        1 TEMP              0 ****  ****    0 ROOT


##########                                Name:    ZINC000822206030
##########                DOCK_Rotatable_Bonds:                   7
##########                         Heavy_Atoms:                  29
##########                    Molecular_Weight:             391.448
##########                DOCK_Rotatable_Bonds:                   7
##########                       Formal_Charge:         -0.00999995
##########                     HBond_Acceptors:                   7
##########                        HBond_Donors:                   1
##########                         Heavy_Atoms:                  29
##########                          Grid_Score:          -33.022545
##########                     Grid_vdw_energy:          -31.444111
##########                      Grid_es_energy:           -1.578434
##########           Internal_energy_repulsive:           31.628057

@<TRIPOS>MOLECULE
ZINC000822206030
 51 55 1 0 0
SMALL
USER_CHARGES


@<TRIPOS>ATOM
      1 C1        -11.7786   -3.0270   53.2173 C.3     1  ZINC000822206030   -0.1300
      2 C2        -10.9600   -1.9149   53.8209 C.ar    1  ZINC000822206030   -0.0400
      3 C3        -10.1127   -1.1700   53.0246 C.ar    1  ZINC000822206030   -0.1500
      4 C4         -9.3599   -0.1483   53.5789 C.ar    1  ZINC000822206030    0.1100
      5 F5         -8.5313    0.5791   52.7983 F       1  ZINC000822206030   -0.1400
      6 C6         -9.4556    0.1291   54.9321 C.ar    1  ZINC000822206030   -0.1500
      7 C7        -10.3019   -0.6138   55.7321 C.ar    1  ZINC000822206030   -0.0800
      8 C8        -11.0614   -1.6349   55.1773 C.ar    1  ZINC000822206030    0.1100
      9 N9        -11.9203   -2.3889   55.9865 N.am    1  ZINC000822206030   -0.5600
     10 C10       -11.3776   -3.4390   56.8518 C.3     1  ZINC000822206030    0.1500
     11 C11       -10.8879   -2.8263   58.1386 C.ar    1  ZINC000822206030   -0.0900
     12 C12       -11.5523   -1.7416   58.6819 C.ar    1  ZINC000822206030   -0.1000
     13 C13       -11.1083   -1.1768   59.8604 C.ar    1  ZINC000822206030   -0.0800
     14 C14        -9.9890   -1.7011   60.5029 C.ar    1  ZINC000822206030   -0.0100
     15 C15        -9.5072   -1.0980   61.7710 C.2     1  ZINC000822206030    0.2200
     16 N16        -8.4762   -1.4951   62.4898 N.2     1  ZINC000822206030   -0.2900
     17 N17        -8.3860   -0.7172   63.5133 N.pl3   1  ZINC000822206030   -0.2300
     18 N18        -9.3270    0.1598   63.4658 N.2     1  ZINC000822206030   -0.0500
     19 N19       -10.0327   -0.0402   62.4048 N.2     1  ZINC000822206030   -0.2700
     20 C20        -9.3236   -2.7936   59.9514 C.ar    1  ZINC000822206030   -0.0800
     21 C21        -9.7791   -3.3541   58.7751 C.ar    1  ZINC000822206030   -0.0900
     22 C22       -13.2464   -2.1485   55.9691 C.2     1  ZINC000822206030    0.5500
     23 O23       -13.6956   -1.2781   55.2538 O.2     1  ZINC000822206030   -0.5000
     24 C24       -14.1710   -2.9611   56.8384 C.3     1  ZINC000822206030   -0.1900
     25 H25       -13.9861   -2.8961   57.9107 H       1  ZINC000822206030    0.1200
     26 C26       -14.6645   -4.3000   56.2866 C.3     1  ZINC000822206030   -0.1400
     27 C27       -15.6229   -3.1101   56.3796 C.3     1  ZINC000822206030   -0.0900
     28 H28       -16.3934   -3.1434   57.1500 H       1  ZINC000822206030    0.1100
     29 C29       -16.0256   -2.4233   55.0731 C.3     1  ZINC000822206030   -0.1100
     30 C30       -17.4772   -2.5739   54.6139 C.3     1  ZINC000822206030   -0.2000
     31 C31       -16.9845   -1.2348   55.1661 C.3     1  ZINC000822206030   -0.1200
     32 H32       -12.7356   -2.6307   52.8778 H       1  ZINC000822206030    0.0900
     33 H33       -11.2418   -3.4550   52.3707 H       1  ZINC000822206030    0.0700
     34 H34       -11.9506   -3.7996   53.9667 H       1  ZINC000822206030    0.0700
     35 H35       -10.0369   -1.3845   51.9688 H       1  ZINC000822206030    0.1400
     36 H36        -8.8679    0.9265   55.3624 H       1  ZINC000822206030    0.1400
     37 H37       -10.3761   -0.3974   56.7875 H       1  ZINC000822206030    0.1400
     38 H38       -12.1573   -4.1687   57.0704 H       1  ZINC000822206030    0.1000
     39 H39       -10.5483   -3.9338   56.3463 H       1  ZINC000822206030    0.0900
     40 H40       -12.4198   -1.3356   58.1828 H       1  ZINC000822206030    0.1300
     41 H41       -11.6276   -0.3297   60.2836 H       1  ZINC000822206030    0.1400
     42 H42        -7.7145   -0.7827   64.2103 H       1  ZINC000822206030    0.4800
     43 H43        -8.4551   -3.2037   60.4452 H       1  ZINC000822206030    0.1300
     44 H44        -9.2641   -4.2012   58.3467 H       1  ZINC000822206030    0.1400
     45 H45       -14.3205   -4.5930   55.2947 H       1  ZINC000822206030    0.1000
     46 H46       -14.8048   -5.1158   56.9958 H       1  ZINC000822206030    0.1000
     47 H47       -15.2547   -2.3890   54.3032 H       1  ZINC000822206030    0.1000
     48 H48       -17.6617   -2.6389   53.5416 H       1  ZINC000822206030    0.0900
     49 H49       -18.1454   -3.1623   55.2426 H       1  ZINC000822206030    0.0900
     50 H50       -17.3287   -0.9422   56.1580 H       1  ZINC000822206030    0.0800
     51 H51       -16.8449   -0.4188   54.4570 H       1  ZINC000822206030    0.0900
@<TRIPOS>BOND
     1     1     2    1
     2     1    32    1
     3     1    33    1
     4     1    34    1
     5     2     8   ar
     6     2     3   ar
     7     3     4   ar
     8     3    35    1
     9     4     5    1
    10     4     6   ar
    11     6     7   ar
    12     6    36    1
    13     7     8   ar
    14     7    37    1
    15     8     9    1
    16     9    10    1
    17     9    22   am
    18    10    11    1
    19    10    38    1
    20    10    39    1
    21    11    21   ar
    22    11    12   ar
    23    12    13   ar
    24    12    40    1
    25    13    14   ar
    26    13    41    1
    27    14    15    1
    28    14    20   ar
    29    15    19    1
    30    15    16    2
    31    16    17    1
    32    17    18    1
    33    17    42    1
    34    18    19    2
    35    20    21   ar
    36    20    43    1
    37    21    44    1
    38    22    23    2
    39    22    24    1
    40    24    25    1
    41    24    27    1
    42    24    26    1
    43    26    27    1
    44    26    45    1
    45    26    46    1
    46    27    28    1
    47    27    29    1
    48    29    31    1
    49    29    30    1
    50    29    47    1
    51    30    31    1
    52    30    48    1
    53    30    49    1
    54    31    50    1
    55    31    51    1
@<TRIPOS>SUBSTRUCTURE
     1 ZINC000822206030        1 TEMP              0 ****  ****    0 ROOT


##########                                Name:    ZINC000466160459
##########                DOCK_Rotatable_Bonds:                   9
##########                         Heavy_Atoms:                  30
##########                    Molecular_Weight:             420.512
##########                DOCK_Rotatable_Bonds:                   9
##########                       Formal_Charge:          -0.0300007
##########                     HBond_Acceptors:                  10
##########                        HBond_Donors:                   2
##########                         Heavy_Atoms:                  30
##########                          Grid_Score:          -32.994904
##########                     Grid_vdw_energy:          -32.553150
##########                      Grid_es_energy:           -0.441754
##########           Internal_energy_repulsive:           96.897270

@<TRIPOS>MOLECULE
ZINC000466160459
 62 64 1 0 0
SMALL
USER_CHARGES


@<TRIPOS>ATOM
      1 C1        -15.8249   -4.6182   45.7128 C.3     1  ZINC000466160459    0.0300
      2 O2        -14.9417   -3.7709   46.4503 O.3     1  ZINC000466160459   -0.3900
      3 C3        -15.6084   -2.8325   47.2970 C.3     1  ZINC000466160459    0.0500
      4 C4        -14.5707   -1.9822   48.0326 C.3     1  ZINC000466160459    0.1200
      5 N5        -15.2535   -1.0403   48.9228 N.am    1  ZINC000466160459   -0.7300
      6 C6        -14.6566   -0.6353   50.0613 C.2     1  ZINC000466160459    0.5200
      7 O7        -13.5534   -1.0497   50.3480 O.2     1  ZINC000466160459   -0.5200
      8 C8        -15.3598    0.3322   50.9780 C.3     1  ZINC000466160459   -0.1300
      9 H9        -16.3379   -0.0667   51.2469 H       1  ZINC000466160459    0.1100
     10 C10       -15.5341    1.6757   50.2661 C.3     1  ZINC000466160459   -0.1000
     11 C11       -14.1634    2.2206   49.8583 C.3     1  ZINC000466160459   -0.1500
     12 C12       -13.3137    2.4451   51.1131 C.3     1  ZINC000466160459    0.1600
     13 H13       -13.7633    3.2283   51.7235 H       1  ZINC000466160459    0.0700
     14 C14       -11.8985    2.8604   50.7066 C.3     1  ZINC000466160459   -0.1400
     15 N15       -13.2616    1.1925   51.8792 N.am    1  ZINC000466160459   -0.6200
     16 C16       -12.0786    0.6566   52.2396 C.2     1  ZINC000466160459    0.7100
     17 O17       -11.0412    1.2104   51.9308 O.2     1  ZINC000466160459   -0.5500
     18 N18       -12.0456   -0.4929   52.9423 N.am    1  ZINC000466160459   -0.7300
     19 C19       -10.7597   -1.0754   53.3340 C.3     1  ZINC000466160459    0.1600
     20 H20        -9.9495   -0.4584   52.9454 H       1  ZINC000466160459    0.1300
     21 C21       -10.6446   -2.4884   52.7570 C.3     1  ZINC000466160459   -0.1400
     22 C22       -11.6108   -3.4034   53.5190 C.3     1  ZINC000466160459   -0.1400
     23 C23       -11.1147   -3.5493   54.9581 C.3     1  ZINC000466160459    0.1100
     24 N24       -10.8537   -2.2401   55.5430 N.am    1  ZINC000466160459   -0.5200
     25 C25       -10.7903   -2.1455   56.9399 C.2     1  ZINC000466160459    0.2800
     26 N26        -9.7587   -2.4595   57.6877 N.2     1  ZINC000466160459   -0.2600
     27 N27       -10.1003   -2.2219   59.0252 N.pl3   1  ZINC000466160459   -0.3800
     28 C28        -9.2342   -2.4400   60.1864 C.3     1  ZINC000466160459    0.1000
     29 C29       -11.3668   -1.7564   59.0570 C.2     1  ZINC000466160459    0.0700
     30 C30       -11.8173   -1.6925   57.7834 C.2     1  ZINC000466160459   -0.2900
     31 C31       -10.6719   -1.1285   54.8323 C.2     1  ZINC000466160459    0.4900
     32 O32       -10.4204   -0.1017   55.4269 O.2     1  ZINC000466160459   -0.4700
     33 C33       -14.5241    0.5346   52.2458 C.3     1  ZINC000466160459    0.1200
     34 H34       -15.2418   -5.3011   45.0950 H       1  ZINC000466160459    0.0900
     35 H35       -16.4413   -5.1913   46.4054 H       1  ZINC000466160459    0.0400
     36 H36       -16.4654   -4.0085   45.0755 H       1  ZINC000466160459    0.0400
     37 H37       -16.2451   -2.1864   46.6927 H       1  ZINC000466160459    0.0600
     38 H38       -16.2195   -3.3686   48.0231 H       1  ZINC000466160459    0.0700
     39 H39       -13.9201   -2.6304   48.6197 H       1  ZINC000466160459    0.0800
     40 H40       -13.9739   -1.4292   47.3073 H       1  ZINC000466160459    0.0800
     41 H41       -16.1354   -0.7079   48.6929 H       1  ZINC000466160459    0.4000
     42 H42       -16.1494    1.5383   49.3768 H       1  ZINC000466160459    0.0700
     43 H43       -16.0206    2.3824   50.9383 H       1  ZINC000466160459    0.0700
     44 H44       -13.6661    1.5030   49.2058 H       1  ZINC000466160459    0.1000
     45 H45       -14.2900    3.1659   49.3307 H       1  ZINC000466160459    0.0700
     46 H46       -11.9493    3.7270   50.0474 H       1  ZINC000466160459    0.0400
     47 H47       -11.3245    3.1149   51.5976 H       1  ZINC000466160459    0.0800
     48 H48       -11.4133    2.0352   50.1853 H       1  ZINC000466160459    0.0600
     49 H49       -12.8733   -0.9347   53.1887 H       1  ZINC000466160459    0.3900
     50 H50       -10.9085   -2.4756   51.6995 H       1  ZINC000466160459    0.0900
     51 H51        -9.6240   -2.8517   52.8765 H       1  ZINC000466160459    0.0900
     52 H52       -12.6081   -2.9633   53.5188 H       1  ZINC000466160459    0.0700
     53 H53       -11.6406   -4.3827   53.0414 H       1  ZINC000466160459    0.1000
     54 H54       -11.8718   -4.0638   55.5498 H       1  ZINC000466160459    0.0900
     55 H55       -10.1964   -4.1364   54.9648 H       1  ZINC000466160459    0.0800
     56 H56        -8.6677   -1.5319   60.3929 H       1  ZINC000466160459    0.0700
     57 H57        -9.8451   -2.6922   61.0532 H       1  ZINC000466160459    0.0900
     58 H58        -8.5452   -3.2583   59.9772 H       1  ZINC000466160459    0.0900
     59 H59       -11.9206   -1.4799   59.9420 H       1  ZINC000466160459    0.1800
     60 H60       -12.7960   -1.3594   57.4712 H       1  ZINC000466160459    0.1500
     61 H61       -15.0723    1.1621   52.9487 H       1  ZINC000466160459    0.0900
     62 H62       -14.3131   -0.4319   52.7034 H       1  ZINC000466160459    0.0700
@<TRIPOS>BOND
     1     1     2    1
     2     1    34    1
     3     1    35    1
     4     1    36    1
     5     2     3    1
     6     3     4    1
     7     3    37    1
     8     3    38    1
     9     4     5    1
    10     4    39    1
    11     4    40    1
    12     5     6   am
    13     5    41    1
    14     6     7    2
    15     6     8    1
    16     8     9    1
    17     8    33    1
    18     8    10    1
    19    10    11    1
    20    10    42    1
    21    10    43    1
    22    11    12    1
    23    11    44    1
    24    11    45    1
    25    12    13    1
    26    12    14    1
    27    12    15    1
    28    14    46    1
    29    14    47    1
    30    14    48    1
    31    15    16   am
    32    15    33    1
    33    16    17    2
    34    16    18   am
    35    18    19    1
    36    18    49    1
    37    19    20    1
    38    19    31    1
    39    19    21    1
    40    21    22    1
    41    21    50    1
    42    21    51    1
    43    22    23    1
    44    22    52    1
    45    22    53    1
    46    23    24    1
    47    23    54    1
    48    23    55    1
    49    24    25    1
    50    24    31   am
    51    25    30    1
    52    25    26    2
    53    26    27    1
    54    27    28    1
    55    27    29    1
    56    28    56    1
    57    28    57    1
    58    28    58    1
    59    29    30    2
    60    29    59    1
    61    30    60    1
    62    31    32    2
    63    33    61    1
    64    33    62    1
@<TRIPOS>SUBSTRUCTURE
     1 ZINC000466160459        1 TEMP              0 ****  ****    0 ROOT


##########                                Name:    ZINC001053792610
##########                DOCK_Rotatable_Bonds:                   5
##########                         Heavy_Atoms:                  25
##########                    Molecular_Weight:             347.374
##########                DOCK_Rotatable_Bonds:                   5
##########                       Formal_Charge:          -0.0400001
##########                     HBond_Acceptors:                   9
##########                        HBond_Donors:                   2
##########                         Heavy_Atoms:                  25
##########                          Grid_Score:          -32.976593
##########                     Grid_vdw_energy:          -31.822638
##########                      Grid_es_energy:           -1.153954
##########           Internal_energy_repulsive:            5.191463

@<TRIPOS>MOLECULE
ZINC001053792610
 46 49 1 0 0
SMALL
USER_CHARGES


@<TRIPOS>ATOM
      1 C1          1.3637   -0.5280   40.3479 C.3     1  ZINC001053792610   -0.1000
      2 C2          0.5218   -0.3662   41.5873 C.ar    1  ZINC001053792610    0.0800
      3 C3         -0.7594   -0.8869   41.6260 C.ar    1  ZINC001053792610    0.0600
      4 N4         -1.4977   -0.7450   42.7129 N.ar    1  ZINC001053792610   -0.4200
      5 C5         -1.0124   -0.1059   43.7624 C.ar    1  ZINC001053792610    0.0800
      6 C6         -1.8542    0.0555   45.0019 C.3     1  ZINC001053792610    0.0700
      7 N7         -1.4791    1.2979   45.6903 N.3     1  ZINC001053792610   -0.4500
      8 C8         -0.9376    1.0152   47.0342 C.3     1  ZINC001053792610   -0.0100
      9 C9         -1.7470    2.2057   47.5445 C.3     1  ZINC001053792610    0.0800
     10 C10        -2.6493    1.9125   46.3476 C.3     1  ZINC001053792610   -0.0100
     11 C11        -2.4012    2.0103   48.9213 C.3     1  ZINC001053792610   -0.1500
     12 C12        -1.5893    2.9969   49.8071 C.3     1  ZINC001053792610    0.1100
     13 H13        -2.1903    3.3627   50.6396 H       1  ZINC001053792610    0.1200
     14 N14        -0.3507    2.3786   50.2865 N.am    1  ZINC001053792610   -0.7100
     15 C15         0.2427    2.8383   51.4059 C.2     1  ZINC001053792610    0.5000
     16 O16        -0.2495    3.7631   52.0171 O.2     1  ZINC001053792610   -0.5100
     17 C17         1.5177    2.2034   51.8981 C.3     1  ZINC001053792610    0.0800
     18 H18         1.5667    1.1584   51.5922 H       1  ZINC001053792610    0.1300
     19 C19         2.7440    2.9777   51.3774 C.3     1  ZINC001053792610    0.0500
     20 O20         3.4049    3.4470   52.5881 O.3     1  ZINC001053792610   -0.3200
     21 C21         2.7156    3.0388   53.6594 C.2     1  ZINC001053792610    0.6500
     22 O22         3.0491    3.2947   54.7995 O.2     1  ZINC001053792610   -0.5100
     23 N23         1.6214    2.3192   53.3607 N.am    1  ZINC001053792610   -0.7100
     24 C24        -1.2918    4.1308   48.7927 C.3     1  ZINC001053792610    0.0400
     25 O25        -1.0824    3.4651   47.5343 O.3     1  ZINC001053792610   -0.3300
     26 C26         0.2691    0.4150   43.7237 C.ar    1  ZINC001053792610    0.0600
     27 N27         1.0092    0.2684   42.6390 N.ar    1  ZINC001053792610   -0.4400
     28 H28         1.9340   -1.4545   40.4144 H       1  ZINC001053792610    0.0800
     29 H29         0.7170   -0.5616   39.4711 H       1  ZINC001053792610    0.0800
     30 H30         2.0492    0.3151   40.2617 H       1  ZINC001053792610    0.0800
     31 H31        -1.1561   -1.4090   40.7680 H       1  ZINC001053792610    0.1700
     32 H32        -2.9071    0.0983   44.7230 H       1  ZINC001053792610    0.1000
     33 H33        -1.6886   -0.7923   45.6666 H       1  ZINC001053792610    0.0600
     34 H34        -1.2653    0.0594   47.4428 H       1  ZINC001053792610    0.0800
     35 H35         0.1404    1.1590   47.1076 H       1  ZINC001053792610    0.0900
     36 H36        -3.0091    2.8099   45.8442 H       1  ZINC001053792610    0.1000
     37 H37        -3.4468    1.2029   46.5678 H       1  ZINC001053792610    0.0800
     38 H38        -3.4549    2.2878   48.8946 H       1  ZINC001053792610    0.1000
     39 H39        -2.2788    0.9844   49.2684 H       1  ZINC001053792610    0.1000
     40 H40         0.0423    1.6382   49.7984 H       1  ZINC001053792610    0.4000
     41 H41         3.4026    2.3165   50.8143 H       1  ZINC001053792610    0.1200
     42 H42         2.4304    3.8209   50.7619 H       1  ZINC001053792610    0.1100
     43 H43         1.0018    1.9413   54.0043 H       1  ZINC001053792610    0.4400
     44 H44        -2.1417    4.8098   48.7246 H       1  ZINC001053792610    0.0800
     45 H45        -0.3944    4.6753   49.0865 H       1  ZINC001053792610    0.0900
     46 H46         0.6659    0.9375   44.5816 H       1  ZINC001053792610    0.1600
@<TRIPOS>BOND
     1     1     2    1
     2     1    28    1
     3     1    29    1
     4     1    30    1
     5     2    27   ar
     6     2     3   ar
     7     3     4   ar
     8     3    31    1
     9     4     5   ar
    10     5     6    1
    11     5    26   ar
    12     6     7    1
    13     6    32    1
    14     6    33    1
    15     7    10    1
    16     7     8    1
    17     8     9    1
    18     8    34    1
    19     8    35    1
    20     9    25    1
    21     9    10    1
    22     9    11    1
    23    10    36    1
    24    10    37    1
    25    11    12    1
    26    11    38    1
    27    11    39    1
    28    12    13    1
    29    12    14    1
    30    12    24    1
    31    14    15   am
    32    14    40    1
    33    15    16    2
    34    15    17    1
    35    17    18    1
    36    17    23    1
    37    17    19    1
    38    19    20    1
    39    19    41    1
    40    19    42    1
    41    20    21    1
    42    21    22    2
    43    21    23   am
    44    23    43    1
    45    24    25    1
    46    24    44    1
    47    24    45    1
    48    26    27   ar
    49    26    46    1
@<TRIPOS>SUBSTRUCTURE
     1 ZINC001053792610        1 TEMP              0 ****  ****    0 ROOT


##########                                Name:    ZINC001060578637
##########                DOCK_Rotatable_Bonds:                  10
##########                         Heavy_Atoms:                  25
##########                    Molecular_Weight:             345.401
##########                DOCK_Rotatable_Bonds:                  10
##########                       Formal_Charge:          -0.0400001
##########                     HBond_Acceptors:                   8
##########                        HBond_Donors:                   3
##########                         Heavy_Atoms:                  25
##########                          Grid_Score:          -32.974766
##########                     Grid_vdw_energy:          -29.710018
##########                      Grid_es_energy:           -3.264747
##########           Internal_energy_repulsive:           17.873871

@<TRIPOS>MOLECULE
ZINC001060578637
 48 49 1 0 0
SMALL
USER_CHARGES


@<TRIPOS>ATOM
      1 C1        -11.7192   -2.3672   51.9695 C.3     1  ZINC001060578637   -0.1500
      2 C2        -12.4653   -1.8368   53.1954 C.3     1  ZINC001060578637   -0.1300
      3 C3        -13.4565   -2.8939   53.6862 C.3     1  ZINC001060578637    0.0700
      4 H4        -13.7399   -3.5399   52.8552 H       1  ZINC001060578637    0.0900
      5 O5        -14.6209   -2.2497   54.2070 O.3     1  ZINC001060578637   -0.3600
      6 C6        -14.3404   -1.2346   55.1730 C.3     1  ZINC001060578637    0.0300
      7 C7        -12.8134   -3.7213   54.7691 C.2     1  ZINC001060578637    0.5000
      8 O8        -11.6345   -3.9979   54.7016 O.2     1  ZINC001060578637   -0.5200
      9 N9        -13.5485   -4.1540   55.8127 N.am    1  ZINC001060578637   -0.7300
     10 C10       -12.9230   -4.9569   56.8664 C.3     1  ZINC001060578637    0.1600
     11 C11       -11.9861   -4.0910   57.6686 C.ar    1  ZINC001060578637   -0.1100
     12 C12       -10.6788   -4.4911   57.8723 C.ar    1  ZINC001060578637   -0.0900
     13 C13        -9.8194   -3.6968   58.6081 C.ar    1  ZINC001060578637   -0.1100
     14 C14       -10.2674   -2.5020   59.1398 C.ar    1  ZINC001060578637   -0.0900
     15 C15        -9.3308   -1.6362   59.9424 C.3     1  ZINC001060578637    0.1800
     16 H16        -8.3029   -1.9548   59.7687 H       1  ZINC001060578637    0.1000
     17 C17        -9.6616   -1.7697   61.4302 C.3     1  ZINC001060578637   -0.1600
     18 N18        -9.4848   -0.2385   59.5314 N.am    1  ZINC001060578637   -0.7000
     19 C19        -9.0908    0.1499   58.3024 C.2     1  ZINC001060578637    0.6100
     20 O20        -8.6061   -0.6595   57.5353 O.2     1  ZINC001060578637   -0.5300
     21 C21        -9.2475    1.5563   57.8881 C.2     1  ZINC001060578637    0.1200
     22 N22        -9.1524    2.0272   56.6630 N.2     1  ZINC001060578637   -0.2400
     23 N23        -9.3472    3.2981   56.6765 N.2     1  ZINC001060578637   -0.2900
     24 C24        -9.5756    3.7027   57.9021 C.2     1  ZINC001060578637    0.1900
     25 N25        -9.5258    2.6216   58.7053 N.pl3   1  ZINC001060578637   -0.5500
     26 C26       -11.5744   -2.1012   58.9349 C.ar    1  ZINC001060578637   -0.1100
     27 C27       -12.4326   -2.8936   58.1959 C.ar    1  ZINC001060578637   -0.0900
     28 H28       -10.9912   -1.6266   51.6386 H       1  ZINC001060578637    0.0600
     29 H29       -11.2042   -3.2920   52.2297 H       1  ZINC001060578637    0.0500
     30 H30       -12.4308   -2.5611   51.1669 H       1  ZINC001060578637    0.0600
     31 H31       -11.7505   -1.6136   53.9874 H       1  ZINC001060578637    0.0800
     32 H32       -13.0056   -0.9288   52.9272 H       1  ZINC001060578637    0.0800
     33 H33       -15.2687   -0.7417   55.4622 H       1  ZINC001060578637    0.0900
     34 H34       -13.8800   -1.6864   56.0516 H       1  ZINC001060578637    0.0500
     35 H35       -13.6588   -0.5013   54.7420 H       1  ZINC001060578637    0.0400
     36 H36       -14.4916   -3.9338   55.8660 H       1  ZINC001060578637    0.4000
     37 H37       -13.6945   -5.3613   57.5215 H       1  ZINC001060578637    0.0800
     38 H38       -12.3635   -5.7763   56.4150 H       1  ZINC001060578637    0.0800
     39 H39       -10.3288   -5.4245   57.4568 H       1  ZINC001060578637    0.1300
     40 H40        -8.7982   -4.0098   58.7679 H       1  ZINC001060578637    0.1300
     41 H41       -10.6894   -1.4511   61.6038 H       1  ZINC001060578637    0.0600
     42 H42        -9.5470   -2.8096   61.7360 H       1  ZINC001060578637    0.0700
     43 H43        -8.9841   -1.1435   62.0107 H       1  ZINC001060578637    0.0700
     44 H44        -9.8703    0.4074   60.1438 H       1  ZINC001060578637    0.4100
     45 H45        -9.7720    4.7186   58.2118 H       1  ZINC001060578637    0.2300
     46 H46        -9.6549    2.6020   59.6664 H       1  ZINC001060578637    0.4400
     47 H47       -11.9242   -1.1675   59.3500 H       1  ZINC001060578637    0.1300
     48 H48       -13.4538   -2.5805   58.0359 H       1  ZINC001060578637    0.1300
@<TRIPOS>BOND
     1     1     2    1
     2     1    28    1
     3     1    29    1
     4     1    30    1
     5     2     3    1
     6     2    31    1
     7     2    32    1
     8     3     4    1
     9     3     5    1
    10     3     7    1
    11     5     6    1
    12     6    33    1
    13     6    34    1
    14     6    35    1
    15     7     8    2
    16     7     9   am
    17     9    10    1
    18     9    36    1
    19    10    11    1
    20    10    37    1
    21    10    38    1
    22    11    27   ar
    23    11    12   ar
    24    12    13   ar
    25    12    39    1
    26    13    14   ar
    27    13    40    1
    28    14    15    1
    29    14    26   ar
    30    15    16    1
    31    15    17    1
    32    15    18    1
    33    17    41    1
    34    17    42    1
    35    17    43    1
    36    18    19   am
    37    18    44    1
    38    19    20    2
    39    19    21    1
    40    21    25    1
    41    21    22    2
    42    22    23    1
    43    23    24    2
    44    24    25    1
    45    24    45    1
    46    25    46    1
    47    26    27   ar
    48    26    47    1
    49    27    48    1
@<TRIPOS>SUBSTRUCTURE
     1 ZINC001060578637        1 TEMP              0 ****  ****    0 ROOT


##########                                Name:    ZINC000279593480
##########                DOCK_Rotatable_Bonds:                   9
##########                         Heavy_Atoms:                  23
##########                    Molecular_Weight:              340.85
##########                DOCK_Rotatable_Bonds:                   9
##########                       Formal_Charge:          -0.0500002
##########                     HBond_Acceptors:                   6
##########                        HBond_Donors:                   3
##########                         Heavy_Atoms:                  23
##########                          Grid_Score:          -32.940285
##########                     Grid_vdw_energy:          -33.564209
##########                      Grid_es_energy:            0.623924
##########           Internal_energy_repulsive:           16.099594

@<TRIPOS>MOLECULE
ZINC000279593480
 48 49 1 0 0
SMALL
USER_CHARGES


@<TRIPOS>ATOM
      1 C1        -14.3385   -5.2759   56.8923 C.3     1  ZINC000279593480   -0.1400
      2 C2        -13.8008   -5.3128   55.4604 C.3     1  ZINC000279593480   -0.1400
      3 C3        -13.1509   -3.9689   55.1249 C.3     1  ZINC000279593480    0.1700
      4 H4        -13.8926   -3.1750   55.2114 H       1  ZINC000279593480    0.0900
      5 C5        -12.6093   -4.0074   53.6945 C.3     1  ZINC000279593480   -0.0900
      6 C6        -11.8270   -2.7489   53.4196 C.ar    1  ZINC000279593480   -0.0800
      7 C7        -12.3183   -1.5254   53.8353 C.ar    1  ZINC000279593480   -0.1000
      8 C8        -11.6012   -0.3709   53.5835 C.ar    1  ZINC000279593480   -0.1100
      9 C9        -10.3918   -0.4399   52.9153 C.ar    1  ZINC000279593480   -0.0400
     10 Cl10       -9.4904    1.0097   52.5991 Cl      1  ZINC000279593480   -0.0700
     11 C11        -9.9008   -1.6647   52.4995 C.ar    1  ZINC000279593480   -0.1100
     12 C12       -10.6159   -2.8191   52.7568 C.ar    1  ZINC000279593480   -0.1000
     13 N13       -12.0501   -3.7126   56.0571 N.am    1  ZINC000279593480   -0.7400
     14 C14       -12.1824   -2.7727   57.0139 C.2     1  ZINC000279593480    0.7100
     15 O15       -13.2159   -2.1385   57.1043 O.2     1  ZINC000279593480   -0.5800
     16 N16       -11.1692   -2.5357   57.8704 N.am    1  ZINC000279593480   -0.7500
     17 C17       -11.3136   -1.5152   58.9115 C.3     1  ZINC000279593480    0.1200
     18 C18        -9.9747   -1.3232   59.6268 C.3     1  ZINC000279593480    0.0900
     19 O19        -8.9192   -1.1645   58.6767 O.3     1  ZINC000279593480   -0.5400
     20 C20       -10.0386   -0.1072   60.5779 C.3     1  ZINC000279593480   -0.1900
     21 C21        -9.7800   -0.7104   61.9763 C.3     1  ZINC000279593480    0.0500
     22 O22        -9.0530   -1.9323   61.7224 O.3     1  ZINC000279593480   -0.3600
     23 C23        -9.6852   -2.5174   60.5630 C.3     1  ZINC000279593480    0.0900
     24 H24       -10.6146   -3.0114   60.8464 H       1  ZINC000279593480    0.0800
     25 C25        -8.7398   -3.5114   59.8856 C.3     1  ZINC000279593480   -0.1400
     26 H26       -15.0795   -4.4816   56.9818 H       1  ZINC000279593480    0.0600
     27 H27       -14.8015   -6.2333   57.1313 H       1  ZINC000279593480    0.0400
     28 H28       -13.5176   -5.0866   57.5840 H       1  ZINC000279593480    0.0600
     29 H29       -13.0597   -6.1071   55.3709 H       1  ZINC000279593480    0.0600
     30 H30       -14.6217   -5.5021   54.7687 H       1  ZINC000279593480    0.0700
     31 H31       -11.9580   -4.8732   53.5757 H       1  ZINC000279593480    0.0800
     32 H32       -13.4406   -4.0790   52.9931 H       1  ZINC000279593480    0.0900
     33 H33       -13.2626   -1.4716   54.3567 H       1  ZINC000279593480    0.1300
     34 H34       -11.9852    0.5850   53.9081 H       1  ZINC000279593480    0.1300
     35 H35        -8.9568   -1.7192   51.9775 H       1  ZINC000279593480    0.1300
     36 H36       -10.2325   -3.7753   52.4327 H       1  ZINC000279593480    0.1300
     37 H37       -11.2261   -4.2193   55.9856 H       1  ZINC000279593480    0.3900
     38 H38       -10.3443   -3.0407   57.7975 H       1  ZINC000279593480    0.3900
     39 H39       -11.6211   -0.5734   58.4570 H       1  ZINC000279593480    0.0800
     40 H40       -12.0675   -1.8345   59.6312 H       1  ZINC000279593480    0.0800
     41 H41        -8.0515   -1.0108   59.0748 H       1  ZINC000279593480    0.3700
     42 H42        -9.2638    0.6165   60.3249 H       1  ZINC000279593480    0.0900
     43 H43       -11.0239    0.3572   60.5385 H       1  ZINC000279593480    0.0900
     44 H44        -9.1786   -0.0292   62.5782 H       1  ZINC000279593480    0.1000
     45 H45       -10.7239   -0.9274   62.4764 H       1  ZINC000279593480    0.0600
     46 H46        -8.5027   -4.3180   60.5793 H       1  ZINC000279593480    0.0600
     47 H47        -9.2212   -3.9242   58.9990 H       1  ZINC000279593480    0.0700
     48 H48        -7.8218   -3.0000   59.5957 H       1  ZINC000279593480    0.0700
@<TRIPOS>BOND
     1     1     2    1
     2     1    26    1
     3     1    27    1
     4     1    28    1
     5     2     3    1
     6     2    29    1
     7     2    30    1
     8     3     4    1
     9     3     5    1
    10     3    13    1
    11     5     6    1
    12     5    31    1
    13     5    32    1
    14     6    12   ar
    15     6     7   ar
    16     7     8   ar
    17     7    33    1
    18     8     9   ar
    19     8    34    1
    20     9    10    1
    21     9    11   ar
    22    11    12   ar
    23    11    35    1
    24    12    36    1
    25    13    14   am
    26    13    37    1
    27    14    15    2
    28    14    16   am
    29    16    17    1
    30    16    38    1
    31    17    18    1
    32    17    39    1
    33    17    40    1
    34    18    23    1
    35    18    19    1
    36    18    20    1
    37    19    41    1
    38    20    21    1
    39    20    42    1
    40    20    43    1
    41    21    22    1
    42    21    44    1
    43    21    45    1
    44    22    23    1
    45    23    24    1
    46    23    25    1
    47    25    46    1
    48    25    47    1
    49    25    48    1
@<TRIPOS>SUBSTRUCTURE
     1 ZINC000279593480        1 TEMP              0 ****  ****    0 ROOT


##########                                Name:    ZINC001119787528
##########                DOCK_Rotatable_Bonds:                   6
##########                         Heavy_Atoms:                  27
##########                    Molecular_Weight:             362.434
##########                DOCK_Rotatable_Bonds:                   6
##########                       Formal_Charge:          -0.0199998
##########                     HBond_Acceptors:                   7
##########                        HBond_Donors:                   1
##########                         Heavy_Atoms:                  27
##########                          Grid_Score:          -32.929119
##########                     Grid_vdw_energy:          -31.058857
##########                      Grid_es_energy:           -1.870262
##########           Internal_energy_repulsive:            9.705714

@<TRIPOS>MOLECULE
ZINC001119787528
 49 52 1 0 0
SMALL
USER_CHARGES


@<TRIPOS>ATOM
      1 C1         -9.3758    1.0742   64.1240 C.3     1  ZINC001119787528   -0.1700
      2 C2        -10.0320    1.6099   62.8499 C.3     1  ZINC001119787528    0.1000
      3 N3        -11.0452    0.6590   62.3856 N.pl3   1  ZINC001119787528   -0.4500
      4 C4        -12.3391    0.6073   62.7776 C.2     1  ZINC001119787528    0.1800
      5 N5        -12.9306   -0.3743   62.1476 N.2     1  ZINC001119787528   -0.4800
      6 C6        -12.0480   -0.9727   61.3449 C.2     1  ZINC001119787528   -0.0200
      7 C7        -10.8640   -0.3361   61.4733 C.2     1  ZINC001119787528   -0.0100
      8 C8         -9.6066   -0.6988   60.7277 C.3     1  ZINC001119787528   -0.0600
      9 C9         -9.7528   -2.1224   60.1747 C.3     1  ZINC001119787528    0.1400
     10 N10       -11.0830   -2.2675   59.5648 N.am    1  ZINC001119787528   -0.6200
     11 C11       -11.2151   -2.4963   58.2432 C.2     1  ZINC001119787528    0.7200
     12 O12       -10.2274   -2.5854   57.5401 O.2     1  ZINC001119787528   -0.5600
     13 N13       -12.4422   -2.6267   57.7012 N.am    1  ZINC001119787528   -0.6600
     14 C14       -12.5785   -2.8627   56.3381 C.ar    1  ZINC001119787528    0.4200
     15 C15       -12.8088   -4.1536   55.8621 C.ar    1  ZINC001119787528   -0.2500
     16 C16       -12.9377   -4.3367   54.4983 C.ar    1  ZINC001119787528    0.1600
     17 N17       -12.8391   -3.2887   53.6936 N.ar    1  ZINC001119787528   -0.5300
     18 C18       -12.6210   -2.0814   54.1750 C.ar    1  ZINC001119787528    0.3500
     19 C19       -12.5168   -0.9198   53.2206 C.3     1  ZINC001119787528   -0.0100
     20 C20       -11.0740   -0.7117   52.8384 C.ar    1  ZINC001119787528   -0.0800
     21 C21       -10.3099   -1.7828   52.4144 C.ar    1  ZINC001119787528   -0.1000
     22 C22        -8.9864   -1.5920   52.0639 C.ar    1  ZINC001119787528   -0.1200
     23 C23        -8.4271   -0.3299   52.1370 C.ar    1  ZINC001119787528   -0.1200
     24 C24        -9.1915    0.7413   52.5601 C.ar    1  ZINC001119787528   -0.1200
     25 C25       -10.5162    0.5512   52.9065 C.ar    1  ZINC001119787528   -0.1000
     26 N26       -12.4969   -1.8611   55.4680 N.ar    1  ZINC001119787528   -0.5500
     27 C27       -12.2698   -2.1540   60.4303 C.3     1  ZINC001119787528    0.2000
     28 H28        -8.6219    1.7815   64.4696 H       1  ZINC001119787528    0.0800
     29 H29       -10.1340    0.9449   64.8965 H       1  ZINC001119787528    0.0600
     30 H30        -8.9041    0.1143   63.9138 H       1  ZINC001119787528    0.0600
     31 H31       -10.5037    2.5698   63.0602 H       1  ZINC001119787528    0.0900
     32 H32        -9.2738    1.7390   62.0775 H       1  ZINC001119787528    0.1000
     33 H33       -12.8064    1.2675   63.4932 H       1  ZINC001119787528    0.2100
     34 H34        -9.4559   -0.0007   59.9043 H       1  ZINC001119787528    0.0800
     35 H35        -8.7545   -0.6562   61.4060 H       1  ZINC001119787528    0.0900
     36 H36        -8.9853   -2.3014   59.4218 H       1  ZINC001119787528    0.1100
     37 H37        -9.6436   -2.8417   60.9863 H       1  ZINC001119787528    0.0800
     38 H38       -13.2302   -2.5556   58.2623 H       1  ZINC001119787528    0.4200
     39 H39       -12.8841   -4.9891   56.5423 H       1  ZINC001119787528    0.1800
     40 H40       -13.1162   -5.3220   54.0935 H       1  ZINC001119787528    0.1700
     41 H41       -13.1027   -1.1310   52.3260 H       1  ZINC001119787528    0.1000
     42 H42       -12.8990   -0.0193   53.7010 H       1  ZINC001119787528    0.1000
     43 H43       -10.7469   -2.7688   52.3574 H       1  ZINC001119787528    0.1300
     44 H44        -8.3892   -2.4289   51.7333 H       1  ZINC001119787528    0.1200
     45 H45        -7.3930   -0.1809   51.8638 H       1  ZINC001119787528    0.1200
     46 H46        -8.7544    1.7273   52.6176 H       1  ZINC001119787528    0.1200
     47 H47       -11.1133    1.3882   53.2371 H       1  ZINC001119787528    0.1200
     48 H48       -12.3833   -3.0605   61.0248 H       1  ZINC001119787528    0.0900
     49 H49       -13.1594   -1.9952   59.8210 H       1  ZINC001119787528    0.0900
@<TRIPOS>BOND
     1     1     2    1
     2     1    28    1
     3     1    29    1
     4     1    30    1
     5     2     3    1
     6     2    31    1
     7     2    32    1
     8     3     7    1
     9     3     4    1
    10     4     5    2
    11     4    33    1
    12     5     6    1
    13     6    27    1
    14     6     7    2
    15     7     8    1
    16     8     9    1
    17     8    34    1
    18     8    35    1
    19     9    10    1
    20     9    36    1
    21     9    37    1
    22    10    11   am
    23    10    27    1
    24    11    12    2
    25    11    13   am
    26    13    14    1
    27    13    38    1
    28    14    26   ar
    29    14    15   ar
    30    15    16   ar
    31    15    39    1
    32    16    17   ar
    33    16    40    1
    34    17    18   ar
    35    18    19    1
    36    18    26   ar
    37    19    20    1
    38    19    41    1
    39    19    42    1
    40    20    25   ar
    41    20    21   ar
    42    21    22   ar
    43    21    43    1
    44    22    23   ar
    45    22    44    1
    46    23    24   ar
    47    23    45    1
    48    24    25   ar
    49    24    46    1
    50    25    47    1
    51    27    48    1
    52    27    49    1
@<TRIPOS>SUBSTRUCTURE
     1 ZINC001119787528        1 TEMP              0 ****  ****    0 ROOT


##########                                Name:    ZINC001004075025
##########                DOCK_Rotatable_Bonds:                   8
##########                         Heavy_Atoms:                  25
##########                    Molecular_Weight:              349.43
##########                DOCK_Rotatable_Bonds:                   8
##########                       Formal_Charge:         -0.00999999
##########                     HBond_Acceptors:                   7
##########                        HBond_Donors:                   1
##########                         Heavy_Atoms:                  25
##########                          Grid_Score:          -32.928165
##########                     Grid_vdw_energy:          -32.730579
##########                      Grid_es_energy:           -0.197588
##########           Internal_energy_repulsive:           16.852049

@<TRIPOS>MOLECULE
ZINC001004075025
 52 54 1 0 0
SMALL
USER_CHARGES


@<TRIPOS>ATOM
      1 C1        -14.4747   -2.6551   60.3597 C.3     1  ZINC001004075025   -0.1500
      2 C2        -15.5535   -3.4013   59.5719 C.3     1  ZINC001004075025   -0.1200
      3 C3        -15.2358   -3.3282   58.0771 C.3     1  ZINC001004075025    0.0800
      4 H4        -15.9367   -3.9420   57.5114 H       1  ZINC001004075025    0.0700
      5 C5        -15.2904   -1.8592   57.5870 C.3     1  ZINC001004075025   -0.1500
      6 C6        -14.3583   -1.9274   56.3466 C.3     1  ZINC001004075025   -0.1400
      7 C7        -13.3070   -2.9702   56.7837 C.3     1  ZINC001004075025    0.0700
      8 H8        -12.4143   -2.4639   57.1506 H       1  ZINC001004075025    0.1100
      9 C9        -12.9498   -3.8557   55.6178 C.2     1  ZINC001004075025    0.5300
     10 O10       -13.3845   -4.9864   55.5595 O.2     1  ZINC001004075025   -0.5200
     11 N11       -12.1472   -3.3910   54.6398 N.am    1  ZINC001004075025   -0.6500
     12 C12       -11.4387   -2.1331   54.3597 C.3     1  ZINC001004075025    0.1100
     13 C13       -11.5340   -2.4752   52.8663 C.3     1  ZINC001004075025   -0.1400
     14 C14       -10.2718   -2.1474   52.0660 C.3     1  ZINC001004075025    0.1300
     15 N15        -9.8360   -0.7840   52.3783 N.am    1  ZINC001004075025   -0.7200
     16 C16        -8.6240   -0.3547   51.9741 C.2     1  ZINC001004075025    0.6000
     17 O17        -7.8929   -1.0986   51.3489 O.2     1  ZINC001004075025   -0.5300
     18 C18        -8.1848    1.0165   52.2899 C.2     1  ZINC001004075025   -0.2700
     19 C19        -8.2431    1.6788   53.4917 C.2     1  ZINC001004075025    0.0700
     20 C20        -8.7826    1.1434   54.7930 C.3     1  ZINC001004075025   -0.0300
     21 C21        -8.0692    1.8276   55.9609 C.3     1  ZINC001004075025   -0.1500
     22 C22       -10.2841    1.4252   54.8772 C.3     1  ZINC001004075025   -0.1500
     23 O23        -7.7269    2.8912   53.2779 O.3     1  ZINC001004075025    0.1000
     24 N24        -7.3685    3.0600   52.1382 N.2     1  ZINC001004075025   -0.3500
     25 C25        -7.5700    2.0110   51.3972 C.2     1  ZINC001004075025    0.0200
     26 C26       -11.5892   -3.9210   53.3866 C.3     1  ZINC001004075025    0.1100
     27 O27       -13.8870   -3.7575   57.8323 O.3     1  ZINC001004075025   -0.3400
     28 H28       -14.7010   -2.7072   61.4246 H       1  ZINC001004075025    0.0600
     29 H29       -13.5044   -3.1145   60.1715 H       1  ZINC001004075025    0.0500
     30 H30       -14.4503   -1.6122   60.0439 H       1  ZINC001004075025    0.0600
     31 H31       -15.5779   -4.4443   59.8877 H       1  ZINC001004075025    0.0800
     32 H32       -16.5239   -2.9419   59.7601 H       1  ZINC001004075025    0.0700
     33 H33       -16.3040   -1.5778   57.3016 H       1  ZINC001004075025    0.0900
     34 H34       -14.8930   -1.1789   58.3401 H       1  ZINC001004075025    0.0900
     35 H35       -14.9050   -2.2721   55.4690 H       1  ZINC001004075025    0.0800
     36 H36       -13.8909   -0.9608   56.1589 H       1  ZINC001004075025    0.0900
     37 H37       -12.0051   -1.2445   54.6385 H       1  ZINC001004075025    0.0900
     38 H38       -10.4162   -2.1174   54.7371 H       1  ZINC001004075025    0.0900
     39 H39       -12.4500   -2.1306   52.3865 H       1  ZINC001004075025    0.1100
     40 H40        -9.4817   -2.8507   52.3293 H       1  ZINC001004075025    0.0800
     41 H41       -10.4869   -2.2249   51.0003 H       1  ZINC001004075025    0.0800
     42 H42       -10.4197   -0.1902   52.8761 H       1  ZINC001004075025    0.4000
     43 H43        -8.6114    0.0681   54.8424 H       1  ZINC001004075025    0.1300
     44 H44        -8.2404    2.9029   55.9116 H       1  ZINC001004075025    0.0600
     45 H45        -8.4593    1.4403   56.9021 H       1  ZINC001004075025    0.0700
     46 H46        -6.9995    1.6269   55.9010 H       1  ZINC001004075025    0.0600
     47 H47       -10.4553    2.5005   54.8278 H       1  ZINC001004075025    0.0600
     48 H48       -10.7924    0.9377   54.0451 H       1  ZINC001004075025    0.0600
     49 H49       -10.6743    1.0379   55.8183 H       1  ZINC001004075025    0.0700
     50 H50        -7.3410    1.8964   50.3479 H       1  ZINC001004075025    0.2000
     51 H51       -10.6066   -4.3779   53.5039 H       1  ZINC001004075025    0.0900
     52 H52       -12.2860   -4.5537   52.8369 H       1  ZINC001004075025    0.0800
@<TRIPOS>BOND
     1     1     2    1
     2     1    28    1
     3     1    29    1
     4     1    30    1
     5     2     3    1
     6     2    31    1
     7     2    32    1
     8     3     4    1
     9     3    27    1
    10     3     5    1
    11     5     6    1
    12     5    33    1
    13     5    34    1
    14     6     7    1
    15     6    35    1
    16     6    36    1
    17     7     8    1
    18     7     9    1
    19     7    27    1
    20     9    10    2
    21     9    11   am
    22    11    26    1
    23    11    12    1
    24    12    13    1
    25    12    37    1
    26    12    38    1
    27    13    14    1
    28    13    26    1
    29    13    39    1
    30    14    15    1
    31    14    40    1
    32    14    41    1
    33    15    16   am
    34    15    42    1
    35    16    17    2
    36    16    18    1
    37    18    25    1
    38    18    19    2
    39    19    20    1
    40    19    23    1
    41    20    21    1
    42    20    22    1
    43    20    43    1
    44    21    44    1
    45    21    45    1
    46    21    46    1
    47    22    47    1
    48    22    48    1
    49    22    49    1
    50    23    24    1
    51    24    25    2
    52    25    50    1
    53    26    51    1
    54    26    52    1
@<TRIPOS>SUBSTRUCTURE
     1 ZINC001004075025        1 TEMP              0 ****  ****    0 ROOT


##########                                Name:    ZINC001105793963
##########                DOCK_Rotatable_Bonds:                   9
##########                         Heavy_Atoms:                  24
##########                    Molecular_Weight:             337.422
##########                DOCK_Rotatable_Bonds:                   9
##########                       Formal_Charge:          -0.0100003
##########                     HBond_Acceptors:                   8
##########                        HBond_Donors:                   2
##########                         Heavy_Atoms:                  24
##########                          Grid_Score:          -32.905647
##########                     Grid_vdw_energy:          -32.873005
##########                      Grid_es_energy:           -0.032641
##########           Internal_energy_repulsive:           10.073529

@<TRIPOS>MOLECULE
ZINC001105793963
 51 52 1 0 0
SMALL
USER_CHARGES


@<TRIPOS>ATOM
      1 C1        -14.5126   -2.1005   52.1921 C.3     1  ZINC001105793963   -0.1500
      2 C2        -13.0685   -1.8197   51.7719 C.3     1  ZINC001105793963   -0.0300
      3 C3        -12.1251   -2.4564   52.7596 C.2     1  ZINC001105793963    0.1800
      4 N4        -12.3874   -2.7544   54.0094 N.2     1  ZINC001105793963   -0.4800
      5 C5        -11.2583   -3.2997   54.4961 C.2     1  ZINC001105793963    0.1700
      6 C6        -11.0470   -3.8107   55.8980 C.3     1  ZINC001105793963    0.1500
      7 N7        -10.7679   -2.6807   56.7943 N.3     1  ZINC001105793963   -0.6900
      8 C8        -10.6889   -3.1247   58.1923 C.3     1  ZINC001105793963    0.0700
      9 C9        -10.1528   -1.9843   59.0601 C.3     1  ZINC001105793963   -0.1000
     10 H10        -9.3369   -1.4723   58.5499 H       1  ZINC001105793963    0.1000
     11 C11        -9.6763   -2.5266   60.4248 C.3     1  ZINC001105793963    0.1100
     12 N12       -10.0594   -1.4777   61.3983 N.am    1  ZINC001105793963   -0.6200
     13 C13        -9.3558   -1.0393   62.4609 C.2     1  ZINC001105793963    0.5300
     14 O14        -8.2687   -1.5171   62.7074 O.2     1  ZINC001105793963   -0.5300
     15 C15        -9.9198    0.0449   63.3427 C.3     1  ZINC001105793963    0.1300
     16 H16       -10.9042   -0.2547   63.7023 H       1  ZINC001105793963    0.1100
     17 C17        -8.9877    0.2689   64.5351 C.3     1  ZINC001105793963   -0.1600
     18 N18       -10.0377    1.2869   62.5749 N.am    1  ZINC001105793963   -0.7200
     19 C19       -10.9760    2.1965   62.9043 C.2     1  ZINC001105793963    0.5200
     20 C20       -11.0985    3.4733   62.1133 C.3     1  ZINC001105793963   -0.1700
     21 O21       -11.7220    1.9874   63.8374 O.2     1  ZINC001105793963   -0.5500
     22 C22       -11.3915   -1.0201   60.9389 C.3     1  ZINC001105793963    0.1000
     23 C23       -11.2831   -0.9895   59.3967 C.3     1  ZINC001105793963   -0.1000
     24 H24       -12.2203   -1.3140   58.9445 H       1  ZINC001105793963    0.0900
     25 C25       -10.9211    0.4175   58.9168 C.3     1  ZINC001105793963   -0.1500
     26 N26       -10.3833   -3.3054   53.5355 N.2     1  ZINC001105793963   -0.3700
     27 O27       -10.8633   -2.8305   52.5277 O.3     1  ZINC001105793963    0.0800
     28 H28       -14.6819   -3.1771   52.2140 H       1  ZINC001105793963    0.0600
     29 H29       -14.6898   -1.6845   53.1838 H       1  ZINC001105793963    0.0600
     30 H30       -15.1950   -1.6400   51.4777 H       1  ZINC001105793963    0.0800
     31 H31       -12.8913   -2.2357   50.7801 H       1  ZINC001105793963    0.1100
     32 H32       -12.8992   -0.7432   51.7499 H       1  ZINC001105793963    0.1000
     33 H33       -11.9447   -4.3288   56.2351 H       1  ZINC001105793963    0.1000
     34 H34       -10.2032   -4.5008   55.9098 H       1  ZINC001105793963    0.0700
     35 H35        -9.9241   -2.2007   56.5191 H       1  ZINC001105793963    0.3500
     36 H36       -11.6819   -3.4098   58.5397 H       1  ZINC001105793963    0.0800
     37 H37       -10.0189   -3.9816   58.2641 H       1  ZINC001105793963    0.0400
     38 H38       -10.1806   -3.4643   60.6582 H       1  ZINC001105793963    0.0700
     39 H39        -8.5952   -2.6659   60.4219 H       1  ZINC001105793963    0.0900
     40 H40        -9.3956    1.0531   65.1729 H       1  ZINC001105793963    0.0800
     41 H41        -8.8999   -0.6552   65.1064 H       1  ZINC001105793963    0.0800
     42 H42        -8.0032    0.5685   64.1754 H       1  ZINC001105793963    0.0600
     43 H43        -9.4402    1.4547   61.8293 H       1  ZINC001105793963    0.4100
     44 H44       -10.3499    3.4831   61.3211 H       1  ZINC001105793963    0.0800
     45 H45       -12.0939    3.5342   61.6734 H       1  ZINC001105793963    0.1000
     46 H46       -10.9401    4.3262   62.7733 H       1  ZINC001105793963    0.1000
     47 H47       -12.1637   -1.7226   61.2527 H       1  ZINC001105793963    0.0800
     48 H48       -11.6044   -0.0230   61.3239 H       1  ZINC001105793963    0.0900
     49 H49        -9.9765    0.7230   59.3668 H       1  ZINC001105793963    0.0600
     50 H50       -10.8231    0.4170   57.8312 H       1  ZINC001105793963    0.0600
     51 H51       -11.7057    1.1146   59.2106 H       1  ZINC001105793963    0.0600
@<TRIPOS>BOND
     1     1     2    1
     2     1    28    1
     3     1    29    1
     4     1    30    1
     5     2     3    1
     6     2    31    1
     7     2    32    1
     8     3    27    1
     9     3     4    2
    10     4     5    1
    11     5     6    1
    12     5    26    2
    13     6     7    1
    14     6    33    1
    15     6    34    1
    16     7     8    1
    17     7    35    1
    18     8     9    1
    19     8    36    1
    20     8    37    1
    21     9    10    1
    22     9    23    1
    23     9    11    1
    24    11    12    1
    25    11    38    1
    26    11    39    1
    27    12    13   am
    28    12    22    1
    29    13    14    2
    30    13    15    1
    31    15    16    1
    32    15    17    1
    33    15    18    1
    34    17    40    1
    35    17    41    1
    36    17    42    1
    37    18    19   am
    38    18    43    1
    39    19    20    1
    40    19    21    2
    41    20    44    1
    42    20    45    1
    43    20    46    1
    44    22    23    1
    45    22    47    1
    46    22    48    1
    47    23    24    1
    48    23    25    1
    49    25    49    1
    50    25    50    1
    51    25    51    1
    52    26    27    1
@<TRIPOS>SUBSTRUCTURE
     1 ZINC001105793963        1 TEMP              0 ****  ****    0 ROOT


##########                                Name:    ZINC000501032137
##########                DOCK_Rotatable_Bonds:                  10
##########                         Heavy_Atoms:                  25
##########                    Molecular_Weight:             407.307
##########                DOCK_Rotatable_Bonds:                  10
##########                       Formal_Charge:           0.0099998
##########                     HBond_Acceptors:                   5
##########                        HBond_Donors:                   1
##########                         Heavy_Atoms:                  25
##########                          Grid_Score:          -32.858028
##########                     Grid_vdw_energy:          -31.769911
##########                      Grid_es_energy:           -1.088117
##########           Internal_energy_repulsive:           13.275054

@<TRIPOS>MOLECULE
ZINC000501032137
 48 50 1 0 0
SMALL
USER_CHARGES


@<TRIPOS>ATOM
      1 C1        -13.2769   -5.2629   56.1265 C.3     1  ZINC000501032137   -0.1500
      2 C2        -12.6075   -4.4838   57.2605 C.3     1  ZINC000501032137   -0.1200
      3 C3        -11.1042   -4.7680   57.2565 C.3     1  ZINC000501032137    0.0600
      4 O4        -10.4963   -4.1327   58.3830 O.3     1  ZINC000501032137   -0.3800
      5 C5        -10.7686   -2.7331   58.4778 C.3     1  ZINC000501032137    0.0500
      6 C6         -9.6922   -2.0609   59.3325 C.3     1  ZINC000501032137    0.1600
      7 H7         -8.7063   -2.3373   58.9586 H       1  ZINC000501032137    0.1000
      8 C8         -9.8340   -2.5199   60.7851 C.3     1  ZINC000501032137   -0.0900
      9 C9        -10.5963   -1.4819   61.5677 C.ar    1  ZINC000501032137   -0.0600
     10 C10        -9.9132   -0.5158   62.2822 C.ar    1  ZINC000501032137   -0.0900
     11 C11       -10.6121    0.4368   63.0004 C.ar    1  ZINC000501032137   -0.1100
     12 C12       -11.9939    0.4232   63.0044 C.ar    1  ZINC000501032137   -0.0900
     13 C13       -12.6780   -0.5436   62.2894 C.ar    1  ZINC000501032137   -0.0800
     14 Br14      -14.5690   -0.5627   62.2944 Br      1  ZINC000501032137   -0.0600
     15 C15       -11.9786   -1.4928   61.5665 C.ar    1  ZINC000501032137   -0.0800
     16 N16        -9.8508   -0.6062   59.2623 N.am    1  ZINC000501032137   -0.7100
     17 C17        -9.2555    0.0897   58.2735 C.2     1  ZINC000501032137    0.6100
     18 O18        -8.5879   -0.4901   57.4387 O.2     1  ZINC000501032137   -0.5200
     19 C19        -9.4136    1.5537   58.2040 C.2     1  ZINC000501032137   -0.0800
     20 C20        -8.8968    2.3785   57.2529 C.2     1  ZINC000501032137    0.0800
     21 C21        -8.0545    1.9692   56.0722 C.3     1  ZINC000501032137   -0.0800
     22 C22        -8.7821    1.4366   54.8361 C.3     1  ZINC000501032137   -0.1700
     23 C23        -8.1446    2.8273   54.8087 C.3     1  ZINC000501032137   -0.1500
     24 O24        -9.2803    3.6263   57.5665 O.3     1  ZINC000501032137   -0.2000
     25 C25       -10.0166    3.5700   58.6853 C.2     1  ZINC000501032137    0.1800
     26 N26       -10.1089    2.3340   59.0753 N.2     1  ZINC000501032137   -0.4600
     27 H27       -12.8511   -4.9530   55.1721 H       1  ZINC000501032137    0.0600
     28 H28       -13.1085   -6.3301   56.2701 H       1  ZINC000501032137    0.0600
     29 H29       -14.3479   -5.0604   56.1294 H       1  ZINC000501032137    0.0600
     30 H30       -12.7759   -3.4165   57.1169 H       1  ZINC000501032137    0.0700
     31 H31       -13.0333   -4.7936   58.2149 H       1  ZINC000501032137    0.0700
     32 H32       -10.9377   -5.8437   57.3124 H       1  ZINC000501032137    0.0500
     33 H33       -10.6634   -4.3793   56.3385 H       1  ZINC000501032137    0.0500
     34 H34       -10.7670   -2.2941   57.4801 H       1  ZINC000501032137    0.0700
     35 H35       -11.7448   -2.5833   58.9391 H       1  ZINC000501032137    0.0600
     36 H36       -10.3731   -3.4666   60.8160 H       1  ZINC000501032137    0.0900
     37 H37        -8.8444   -2.6508   61.2229 H       1  ZINC000501032137    0.0800
     38 H38        -8.8332   -0.5051   62.2796 H       1  ZINC000501032137    0.1200
     39 H39       -10.0779    1.1913   63.5588 H       1  ZINC000501032137    0.1300
     40 H40       -12.5397    1.1672   63.5657 H       1  ZINC000501032137    0.1300
     41 H41       -12.5123   -2.2476   61.0079 H       1  ZINC000501032137    0.1200
     42 H42       -10.3843   -0.1439   59.9276 H       1  ZINC000501032137    0.4100
     43 H43        -7.0865    1.5306   56.3147 H       1  ZINC000501032137    0.1500
     44 H44        -8.2929    0.6474   54.2652 H       1  ZINC000501032137    0.1100
     45 H45        -9.8699    1.3824   54.8768 H       1  ZINC000501032137    0.1000
     46 H46        -8.8131    3.6879   54.8314 H       1  ZINC000501032137    0.1000
     47 H47        -7.2361    2.9529   54.2197 H       1  ZINC000501032137    0.1100
     48 H48       -10.4652    4.4176   59.1820 H       1  ZINC000501032137    0.2500
@<TRIPOS>BOND
     1     1     2    1
     2     1    27    1
     3     1    28    1
     4     1    29    1
     5     2     3    1
     6     2    30    1
     7     2    31    1
     8     3     4    1
     9     3    32    1
    10     3    33    1
    11     4     5    1
    12     5     6    1
    13     5    34    1
    14     5    35    1
    15     6     7    1
    16     6     8    1
    17     6    16    1
    18     8     9    1
    19     8    36    1
    20     8    37    1
    21     9    15   ar
    22     9    10   ar
    23    10    11   ar
    24    10    38    1
    25    11    12   ar
    26    11    39    1
    27    12    13   ar
    28    12    40    1
    29    13    14    1
    30    13    15   ar
    31    15    41    1
    32    16    17   am
    33    16    42    1
    34    17    18    2
    35    17    19    1
    36    19    26    1
    37    19    20    2
    38    20    21    1
    39    20    24    1
    40    21    23    1
    41    21    22    1
    42    21    43    1
    43    22    23    1
    44    22    44    1
    45    22    45    1
    46    23    46    1
    47    23    47    1
    48    24    25    1
    49    25    26    2
    50    25    48    1
@<TRIPOS>SUBSTRUCTURE
     1 ZINC000501032137        1 TEMP              0 ****  ****    0 ROOT


##########                                Name:    ZINC000854704989
##########                DOCK_Rotatable_Bonds:                   5
##########                         Heavy_Atoms:                  22
##########                    Molecular_Weight:             365.227
##########                DOCK_Rotatable_Bonds:                   5
##########                       Formal_Charge:        -1.78814e-07
##########                     HBond_Acceptors:                   5
##########                        HBond_Donors:                   1
##########                         Heavy_Atoms:                  22
##########                          Grid_Score:          -32.851635
##########                     Grid_vdw_energy:          -33.095818
##########                      Grid_es_energy:            0.244184
##########           Internal_energy_repulsive:            5.133341

@<TRIPOS>MOLECULE
ZINC000854704989
 39 41 1 0 0
SMALL
USER_CHARGES


@<TRIPOS>ATOM
      1 O1        -11.0068   -4.1890   53.0612 O.2     1  ZINC000854704989   -0.5300
      2 C2        -11.1647   -3.2926   53.8669 C.2     1  ZINC000854704989    0.5700
      3 N3        -10.7713   -2.0392   53.5661 N.am    1  ZINC000854704989   -0.7300
      4 C4        -10.1476   -1.7582   52.2706 C.3     1  ZINC000854704989    0.2000
      5 C5         -9.2100   -0.5864   52.4080 C.2     1  ZINC000854704989   -0.0500
      6 C6         -8.0529   -0.3908   51.7324 C.2     1  ZINC000854704989   -0.1700
      7 C7         -7.5710    0.8429   52.2298 C.2     1  ZINC000854704989    0.0000
      8 Br8        -5.9805    1.7280   51.7171 Br      1  ZINC000854704989    0.0600
      9 N9         -8.4407    1.2483   53.1108 N.2     1  ZINC000854704989   -0.3200
     10 O10        -9.3602    0.4705   53.2188 O.3     1  ZINC000854704989    0.1300
     11 C11       -11.7941   -3.5761   55.1744 C.ar    1  ZINC000854704989   -0.1300
     12 C12       -12.9619   -4.3374   55.2397 C.ar    1  ZINC000854704989   -0.0900
     13 C13       -13.5439   -4.5987   56.4630 C.ar    1  ZINC000854704989   -0.1200
     14 C14       -12.9727   -4.1074   57.6232 C.ar    1  ZINC000854704989   -0.0900
     15 C15       -11.8148   -3.3518   57.5654 C.ar    1  ZINC000854704989   -0.0800
     16 C16       -11.1994   -2.8208   58.8345 C.3     1  ZINC000854704989   -0.0800
     17 H17       -11.8502   -3.0499   59.6784 H       1  ZINC000854704989    0.0900
     18 C18       -11.0225   -1.3035   58.7217 C.3     1  ZINC000854704989   -0.1100
     19 C19       -10.3258   -0.7865   59.9842 C.3     1  ZINC000854704989   -0.1600
     20 C20        -8.9909   -1.5160   60.1560 C.3     1  ZINC000854704989    0.0600
     21 O21        -9.2243   -2.9243   60.2233 O.3     1  ZINC000854704989   -0.3800
     22 C22        -9.8314   -3.4729   59.0516 C.3     1  ZINC000854704989    0.0700
     23 C23       -11.2197   -3.0882   56.3493 C.ar    1  ZINC000854704989   -0.0500
     24 H24       -10.9009   -1.3231   54.2075 H       1  ZINC000854704989    0.4000
     25 H25        -9.5892   -2.6334   51.9387 H       1  ZINC000854704989    0.1100
     26 H26       -10.9203   -1.5214   51.5392 H       1  ZINC000854704989    0.1000
     27 H27        -7.6019   -1.0290   50.9869 H       1  ZINC000854704989    0.1900
     28 H28       -13.4092   -4.7209   54.3345 H       1  ZINC000854704989    0.1200
     29 H29       -14.4476   -5.1878   56.5150 H       1  ZINC000854704989    0.1300
     30 H30       -13.4326   -4.3142   58.5784 H       1  ZINC000854704989    0.1300
     31 H31       -10.4133   -1.0714   57.8481 H       1  ZINC000854704989    0.0700
     32 H32       -11.9987   -0.8287   58.6236 H       1  ZINC000854704989    0.0700
     33 H33       -10.1461    0.2842   59.8885 H       1  ZINC000854704989    0.0800
     34 H34       -10.9580   -0.9746   60.8519 H       1  ZINC000854704989    0.0700
     35 H35        -8.3440   -1.2949   59.3071 H       1  ZINC000854704989    0.0500
     36 H36        -8.5104   -1.1829   61.0760 H       1  ZINC000854704989    0.1000
     37 H37        -9.9556   -4.5486   59.1763 H       1  ZINC000854704989    0.1000
     38 H38        -9.1962   -3.2778   58.1876 H       1  ZINC000854704989    0.0500
     39 H39       -10.3158   -2.4987   56.3056 H       1  ZINC000854704989    0.1400
@<TRIPOS>BOND
     1     1     2    2
     2     2     3   am
     3     2    11    1
     4     3     4    1
     5     3    24    1
     6     4     5    1
     7     4    25    1
     8     4    26    1
     9     5    10    1
    10     5     6    2
    11     6     7    1
    12     6    27    1
    13     7     8    1
    14     7     9    2
    15     9    10    1
    16    11    23   ar
    17    11    12   ar
    18    12    13   ar
    19    12    28    1
    20    13    14   ar
    21    13    29    1
    22    14    15   ar
    23    14    30    1
    24    15    16    1
    25    15    23   ar
    26    16    17    1
    27    16    22    1
    28    16    18    1
    29    18    19    1
    30    18    31    1
    31    18    32    1
    32    19    20    1
    33    19    33    1
    34    19    34    1
    35    20    21    1
    36    20    35    1
    37    20    36    1
    38    21    22    1
    39    22    37    1
    40    22    38    1
    41    23    39    1
@<TRIPOS>SUBSTRUCTURE
     1 ZINC000854704989        1 TEMP              0 ****  ****    0 ROOT


##########                                Name:    ZINC000979274057
##########                DOCK_Rotatable_Bonds:                   6
##########                         Heavy_Atoms:                  24
##########                    Molecular_Weight:              330.39
##########                DOCK_Rotatable_Bonds:                   6
##########                       Formal_Charge:          0.00999946
##########                     HBond_Acceptors:                   8
##########                        HBond_Donors:                   1
##########                         Heavy_Atoms:                  24
##########                          Grid_Score:          -32.839462
##########                     Grid_vdw_energy:          -31.618898
##########                      Grid_es_energy:           -1.220566
##########           Internal_energy_repulsive:           10.636098

@<TRIPOS>MOLECULE
ZINC000979274057
 46 48 1 0 0
SMALL
USER_CHARGES


@<TRIPOS>ATOM
      1 C1        -10.9361   -4.7789   57.7658 C.3     1  ZINC000979274057   -0.1400
      2 C2        -11.2237   -3.3832   57.2091 C.3     1  ZINC000979274057    0.1000
      3 H3        -10.2828   -2.8780   56.9907 H       1  ZINC000979274057    0.0600
      4 N4        -11.9779   -2.6059   58.2015 N.3     1  ZINC000979274057   -0.6700
      5 C5        -11.3629   -1.2893   58.4170 C.3     1  ZINC000979274057    0.1300
      6 C6        -10.5007   -1.3337   59.6522 C.ar    1  ZINC000979274057    0.3200
      7 N7        -10.6023   -0.3654   60.5405 N.ar    1  ZINC000979274057   -0.5200
      8 C8         -9.8615   -0.3707   61.6370 C.ar    1  ZINC000979274057    0.1500
      9 C9         -8.9710   -1.4125   61.8438 C.ar    1  ZINC000979274057   -0.2300
     10 C10        -8.8924   -2.4123   60.8872 C.ar    1  ZINC000979274057    0.1500
     11 N11        -9.6690   -2.3426   59.8180 N.ar    1  ZINC000979274057   -0.5000
     12 C12       -12.0466   -3.5058   55.9250 C.3     1  ZINC000979274057    0.0800
     13 H13       -11.6672   -4.3345   55.3273 H       1  ZINC000979274057    0.0700
     14 C14       -11.9396   -2.2043   55.1220 C.3     1  ZINC000979274057    0.0800
     15 N15       -12.8821   -2.2761   53.9943 N.am    1  ZINC000979274057   -0.6000
     16 C16       -12.4805   -2.0070   52.7362 C.2     1  ZINC000979274057    0.6100
     17 O17       -13.2747   -2.0720   51.8173 O.2     1  ZINC000979274057   -0.5400
     18 C18       -11.0797   -1.6339   52.4740 C.2     1  ZINC000979274057   -0.0600
     19 C19       -10.5309   -0.3957   52.6365 C.2     1  ZINC000979274057    0.0400
     20 N20        -9.2273   -0.4944   52.2850 N.pl3   1  ZINC000979274057   -0.4600
     21 C21        -8.2435    0.5910   52.3016 C.3     1  ZINC000979274057    0.0700
     22 C22        -8.9948   -1.7806   51.9147 C.2     1  ZINC000979274057    0.1900
     23 N23       -10.0982   -2.4614   52.0321 N.2     1  ZINC000979274057   -0.4600
     24 C24       -14.2761   -2.6508   54.2805 C.3     1  ZINC000979274057    0.0500
     25 C25       -14.2691   -3.9305   55.1245 C.3     1  ZINC000979274057    0.0500
     26 O26       -13.4166   -3.7441   56.2568 O.3     1  ZINC000979274057   -0.3600
     27 H27       -10.3499   -4.6914   58.6805 H       1  ZINC000979274057    0.0600
     28 H28       -11.8770   -5.2840   57.9841 H       1  ZINC000979274057    0.0700
     29 H29       -10.3765   -5.3557   57.0294 H       1  ZINC000979274057    0.0600
     30 H30       -12.9450   -2.5129   57.9291 H       1  ZINC000979274057    0.3500
     31 H31       -10.7490   -1.0296   57.5545 H       1  ZINC000979274057    0.1000
     32 H32       -12.1439   -0.5401   58.5458 H       1  ZINC000979274057    0.0600
     33 H33        -9.9494    0.4260   62.3608 H       1  ZINC000979274057    0.1700
     34 H34        -8.3529   -1.4440   62.7289 H       1  ZINC000979274057    0.1500
     35 H35        -8.2096   -3.2392   61.0147 H       1  ZINC000979274057    0.1700
     36 H36       -12.1939   -1.3576   55.7597 H       1  ZINC000979274057    0.0700
     37 H37       -10.9237   -2.0883   54.7446 H       1  ZINC000979274057    0.1000
     38 H38       -11.0392    0.4934   52.9795 H       1  ZINC000979274057    0.1900
     39 H39        -7.7558    0.6246   53.2758 H       1  ZINC000979274057    0.0800
     40 H40        -7.4965    0.4162   51.5272 H       1  ZINC000979274057    0.0900
     41 H41        -8.7460    1.5398   52.1140 H       1  ZINC000979274057    0.0900
     42 H42        -8.0468   -2.1755   51.5807 H       1  ZINC000979274057    0.2100
     43 H43       -14.7657   -1.8490   54.8334 H       1  ZINC000979274057    0.0700
     44 H44       -14.8073   -2.8303   53.3459 H       1  ZINC000979274057    0.1500
     45 H45       -15.2820   -4.1487   55.4633 H       1  ZINC000979274057    0.1100
     46 H46       -13.8987   -4.7610   54.5235 H       1  ZINC000979274057    0.0500
@<TRIPOS>BOND
     1     1     2    1
     2     1    27    1
     3     1    28    1
     4     1    29    1
     5     2     3    1
     6     2     4    1
     7     2    12    1
     8     4     5    1
     9     4    30    1
    10     5     6    1
    11     5    31    1
    12     5    32    1
    13     6    11   ar
    14     6     7   ar
    15     7     8   ar
    16     8     9   ar
    17     8    33    1
    18     9    10   ar
    19     9    34    1
    20    10    11   ar
    21    10    35    1
    22    12    13    1
    23    12    26    1
    24    12    14    1
    25    14    15    1
    26    14    36    1
    27    14    37    1
    28    15    16   am
    29    15    24    1
    30    16    17    2
    31    16    18    1
    32    18    23    1
    33    18    19    2
    34    19    20    1
    35    19    38    1
    36    20    21    1
    37    20    22    1
    38    21    39    1
    39    21    40    1
    40    21    41    1
    41    22    23    2
    42    22    42    1
    43    24    25    1
    44    24    43    1
    45    24    44    1
    46    25    26    1
    47    25    45    1
    48    25    46    1
@<TRIPOS>SUBSTRUCTURE
     1 ZINC000979274057        1 TEMP              0 ****  ****    0 ROOT


##########                                Name:    ZINC000504638019
##########                DOCK_Rotatable_Bonds:                   8
##########                         Heavy_Atoms:                  24
##########                    Molecular_Weight:             328.454
##########                DOCK_Rotatable_Bonds:                   8
##########                       Formal_Charge:        -1.49012e-08
##########                     HBond_Acceptors:                   4
##########                        HBond_Donors:                   1
##########                         Heavy_Atoms:                  24
##########                          Grid_Score:          -32.827812
##########                     Grid_vdw_energy:          -32.028336
##########                      Grid_es_energy:           -0.799478
##########           Internal_energy_repulsive:           13.775565

@<TRIPOS>MOLECULE
ZINC000504638019
 52 53 1 0 0
SMALL
USER_CHARGES


@<TRIPOS>ATOM
      1 C1         -8.5379    0.9934   65.1726 C.3     1  ZINC000504638019   -0.1200
      2 C2         -8.9618    0.5156   63.8076 C.ar    1  ZINC000504638019   -0.0900
      3 C3         -9.5428    1.3979   62.9162 C.ar    1  ZINC000504638019   -0.1200
      4 C4         -9.9316    0.9597   61.6641 C.ar    1  ZINC000504638019   -0.1100
      5 C5         -9.7390   -0.3609   61.3034 C.ar    1  ZINC000504638019   -0.0900
      6 C6        -10.1633   -0.8387   59.9387 C.3     1  ZINC000504638019   -0.0600
      7 H7        -10.3545    0.0206   59.2960 H       1  ZINC000504638019    0.0900
      8 C8         -9.0506   -1.6940   59.3291 C.3     1  ZINC000504638019   -0.1500
      9 C9        -11.4382   -1.6751   60.0648 C.3     1  ZINC000504638019    0.1300
     10 N10       -12.0956   -1.7634   58.7586 N.am    1  ZINC000504638019   -0.7000
     11 C11       -13.2641   -2.4236   58.6354 C.2     1  ZINC000504638019    0.5100
     12 O12       -13.7724   -2.9437   59.6069 O.2     1  ZINC000504638019   -0.5100
     13 C13       -13.9338   -2.5152   57.3025 C.2     1  ZINC000504638019    0.5100
     14 O14       -14.4168   -1.5235   56.7967 O.2     1  ZINC000504638019   -0.5200
     15 N15       -14.0013   -3.6992   56.6622 N.am    1  ZINC000504638019   -0.5800
     16 C16       -13.4182   -4.8965   57.2728 C.3     1  ZINC000504638019    0.0600
     17 C17       -14.6578   -3.7890   55.3557 C.3     1  ZINC000504638019    0.1100
     18 C18       -13.8037   -3.0758   54.3057 C.3     1  ZINC000504638019   -0.1000
     19 H19       -13.4126   -2.1469   54.7208 H       1  ZINC000504638019    0.0800
     20 C20       -14.6551   -2.7694   53.0716 C.3     1  ZINC000504638019   -0.0800
     21 C21       -13.7804   -2.3149   51.9400 C.2     1  ZINC000504638019   -0.1500
     22 C22       -12.5001   -2.4996   51.8937 C.2     1  ZINC000504638019   -0.1600
     23 C23       -11.7099   -3.1850   52.9697 C.3     1  ZINC000504638019   -0.0900
     24 C24       -12.6401   -3.9826   53.8848 C.3     1  ZINC000504638019   -0.1100
     25 C25        -9.1567   -1.2429   62.1945 C.ar    1  ZINC000504638019   -0.1100
     26 C26        -8.7644   -0.8037   63.4451 C.ar    1  ZINC000504638019   -0.1200
     27 H27        -7.5087    1.3497   65.1295 H       1  ZINC000504638019    0.0700
     28 H28        -9.1905    1.8060   65.4920 H       1  ZINC000504638019    0.0700
     29 H29        -8.6080    0.1703   65.8837 H       1  ZINC000504638019    0.0700
     30 H30        -9.6933    2.4296   63.1980 H       1  ZINC000504638019    0.1200
     31 H31       -10.3862    1.6488   60.9679 H       1  ZINC000504638019    0.1200
     32 H32        -9.3575   -2.0396   58.3420 H       1  ZINC000504638019    0.0600
     33 H33        -8.1423   -1.0981   59.2392 H       1  ZINC000504638019    0.0600
     34 H34        -8.8593   -2.5532   59.9717 H       1  ZINC000504638019    0.0600
     35 H35       -11.1831   -2.6765   60.4115 H       1  ZINC000504638019    0.0800
     36 H36       -12.1126   -1.2039   60.7799 H       1  ZINC000504638019    0.0800
     37 H37       -11.6899   -1.3466   57.9823 H       1  ZINC000504638019    0.4100
     38 H38       -14.1329   -5.3336   57.9701 H       1  ZINC000504638019    0.0600
     39 H39       -13.1797   -5.6217   56.4949 H       1  ZINC000504638019    0.0700
     40 H40       -12.5082   -4.6250   57.8079 H       1  ZINC000504638019    0.1100
     41 H41       -14.7742   -4.8368   55.0787 H       1  ZINC000504638019    0.0900
     42 H42       -15.6384   -3.3162   55.4085 H       1  ZINC000504638019    0.0900
     43 H43       -15.1947   -3.6681   52.7728 H       1  ZINC000504638019    0.0800
     44 H44       -15.3712   -1.9839   53.3127 H       1  ZINC000504638019    0.0600
     45 H45       -14.2484   -1.8022   51.1127 H       1  ZINC000504638019    0.1000
     46 H46       -11.9673   -2.1382   51.0265 H       1  ZINC000504638019    0.1000
     47 H47       -10.9860   -3.8596   52.5124 H       1  ZINC000504638019    0.0700
     48 H48       -11.1809   -2.4378   53.5611 H       1  ZINC000504638019    0.0700
     49 H49       -12.0909   -4.3149   54.7658 H       1  ZINC000504638019    0.0700
     50 H50       -13.0322   -4.8456   53.3466 H       1  ZINC000504638019    0.0700
     51 H51        -9.0058   -2.2745   61.9126 H       1  ZINC000504638019    0.1200
     52 H52        -8.3094   -1.4928   64.1412 H       1  ZINC000504638019    0.1200
@<TRIPOS>BOND
     1     1     2    1
     2     1    27    1
     3     1    28    1
     4     1    29    1
     5     2    26   ar
     6     2     3   ar
     7     3     4   ar
     8     3    30    1
     9     4     5   ar
    10     4    31    1
    11     5     6    1
    12     5    25   ar
    13     6     7    1
    14     6     8    1
    15     6     9    1
    16     8    32    1
    17     8    33    1
    18     8    34    1
    19     9    10    1
    20     9    35    1
    21     9    36    1
    22    10    11   am
    23    10    37    1
    24    11    12    2
    25    11    13    1
    26    13    14    2
    27    13    15   am
    28    15    16    1
    29    15    17    1
    30    16    38    1
    31    16    39    1
    32    16    40    1
    33    17    18    1
    34    17    41    1
    35    17    42    1
    36    18    19    1
    37    18    24    1
    38    18    20    1
    39    20    21    1
    40    20    43    1
    41    20    44    1
    42    21    22    2
    43    21    45    1
    44    22    23    1
    45    22    46    1
    46    23    24    1
    47    23    47    1
    48    23    48    1
    49    24    49    1
    50    24    50    1
    51    25    26   ar
    52    25    51    1
    53    26    52    1
@<TRIPOS>SUBSTRUCTURE
     1 ZINC000504638019        1 TEMP              0 ****  ****    0 ROOT


##########                                Name:    ZINC000443933644
##########                DOCK_Rotatable_Bonds:                   8
##########                         Heavy_Atoms:                  27
##########                    Molecular_Weight:             402.438
##########                DOCK_Rotatable_Bonds:                   8
##########                       Formal_Charge:          0.00999922
##########                     HBond_Acceptors:                   9
##########                        HBond_Donors:                   2
##########                         Heavy_Atoms:                  27
##########                          Grid_Score:          -32.827297
##########                     Grid_vdw_energy:          -32.123573
##########                      Grid_es_energy:           -0.703724
##########           Internal_energy_repulsive:           41.545246

@<TRIPOS>MOLECULE
ZINC000443933644
 48 49 1 0 0
SMALL
USER_CHARGES


@<TRIPOS>ATOM
      1 C1        -10.7577   -3.1984   52.5274 C.3     1  ZINC000443933644   -0.1500
      2 C2        -11.1690   -3.1759   54.0009 C.3     1  ZINC000443933644   -0.1400
      3 C3        -12.6928   -3.0841   54.1037 C.3     1  ZINC000443933644   -0.1000
      4 H4        -13.1444   -3.9106   53.5551 H       1  ZINC000443933644    0.1000
      5 C5        -13.1651   -1.7570   53.5068 C.3     1  ZINC000443933644   -0.1700
      6 C6        -13.1101   -3.1595   55.5738 C.3     1  ZINC000443933644    0.1200
      7 H7        -12.9610   -2.1875   56.0442 H       1  ZINC000443933644    0.1300
      8 N8        -12.2963   -4.1649   56.2616 N.am    1  ZINC000443933644   -1.1100
      9 S9        -11.1964   -3.6972   57.4077 S.o2    1  ZINC000443933644    2.6900
     10 O10       -10.6882   -4.8912   57.9870 O.2     1  ZINC000443933644   -0.9400
     11 O11       -10.3696   -2.7178   56.7943 O.2     1  ZINC000443933644   -0.9400
     12 C12       -12.0897   -2.8679   58.6802 C.ar    1  ZINC000443933644   -0.7000
     13 C13       -11.4104   -2.0447   59.5941 C.ar    1  ZINC000443933644    0.0500
     14 C14       -10.0185   -1.8642   59.5164 C.ar    1  ZINC000443933644   -0.1400
     15 C15        -9.3923   -1.0594   60.4178 C.ar    1  ZINC000443933644   -0.0800
     16 C16       -10.1108   -0.4095   61.4195 C.ar    1  ZINC000443933644   -0.1200
     17 C17       -11.4597   -0.5615   61.5251 C.ar    1  ZINC000443933644   -0.0900
     18 C18       -12.1399   -1.3835   60.6128 C.ar    1  ZINC000443933644   -0.0900
     19 C19       -13.5370   -1.5648   60.6911 C.ar    1  ZINC000443933644    0.2300
     20 N20       -14.2758   -0.9233   61.6870 N.am    1  ZINC000443933644   -0.6700
     21 C21       -14.5232   -1.5520   62.8531 C.2     1  ZINC000443933644    0.5100
     22 C22       -15.3206   -0.8595   63.9282 C.3     1  ZINC000443933644   -0.1700
     23 O23       -14.1040   -2.6751   63.0374 O.2     1  ZINC000443933644   -0.5100
     24 C24       -14.1658   -2.3806   59.7754 C.ar    1  ZINC000443933644   -0.1600
     25 C25       -13.4395   -3.0199   58.7752 C.ar    1  ZINC000443933644    0.0400
     26 C26       -14.5869   -3.5490   55.6653 C.3     1  ZINC000443933644    0.4300
     27 F27       -15.1230   -3.6514   54.3772 F       1  ZINC000443933644   -0.1700
     28 F28       -14.7047   -4.7805   56.3187 F       1  ZINC000443933644   -0.1600
     29 F29       -15.2833   -2.5713   56.3838 F       1  ZINC000443933644   -0.1700
     30 H30       -11.2077   -4.0620   52.0377 H       1  ZINC000443933644    0.0500
     31 H31       -11.1004   -2.2853   52.0406 H       1  ZINC000443933644    0.0600
     32 H32        -9.6721   -3.2637   52.4541 H       1  ZINC000443933644    0.0600
     33 H33       -10.8263   -4.0890   54.4877 H       1  ZINC000443933644    0.0700
     34 H34       -10.7191   -2.3123   54.4906 H       1  ZINC000443933644    0.0900
     35 H35       -12.9723   -1.7519   52.4340 H       1  ZINC000443933644    0.0700
     36 H36       -14.2341   -1.6387   53.6844 H       1  ZINC000443933644    0.0600
     37 H37       -12.6257   -0.9347   53.9768 H       1  ZINC000443933644    0.0700
     38 H38       -12.4018   -5.1047   56.0456 H       1  ZINC000443933644    0.4300
     39 H39        -9.4487   -2.3620   58.7457 H       1  ZINC000443933644    0.1400
     40 H40        -8.3228   -0.9227   60.3562 H       1  ZINC000443933644    0.1300
     41 H41        -9.5900    0.2237   62.1224 H       1  ZINC000443933644    0.1300
     42 H42       -12.0036   -0.0522   62.3068 H       1  ZINC000443933644    0.1300
     43 H43       -14.6111   -0.0251   61.5395 H       1  ZINC000443933644    0.4200
     44 H44       -15.6090    0.1336   63.5838 H       1  ZINC000443933644    0.0800
     45 H45       -16.2153   -1.4417   64.1487 H       1  ZINC000443933644    0.1000
     46 H46       -14.7142   -0.7697   64.8294 H       1  ZINC000443933644    0.1000
     47 H47       -15.2350   -2.5219   59.8321 H       1  ZINC000443933644    0.1500
     48 H48       -13.9536   -3.6545   58.0685 H       1  ZINC000443933644    0.1500
@<TRIPOS>BOND
     1     1     2    1
     2     1    30    1
     3     1    31    1
     4     1    32    1
     5     2     3    1
     6     2    33    1
     7     2    34    1
     8     3     4    1
     9     3     5    1
    10     3     6    1
    11     5    35    1
    12     5    36    1
    13     5    37    1
    14     6     7    1
    15     6     8    1
    16     6    26    1
    17     8     9   am
    18     8    38    1
    19     9    10    2
    20     9    11    2
    21     9    12    1
    22    12    25   ar
    23    12    13   ar
    24    13    18   ar
    25    13    14   ar
    26    14    15   ar
    27    14    39    1
    28    15    16   ar
    29    15    40    1
    30    16    17   ar
    31    16    41    1
    32    17    18   ar
    33    17    42    1
    34    18    19   ar
    35    19    20    1
    36    19    24   ar
    37    20    21   am
    38    20    43    1
    39    21    22    1
    40    21    23    2
    41    22    44    1
    42    22    45    1
    43    22    46    1
    44    24    25   ar
    45    24    47    1
    46    25    48    1
    47    26    27    1
    48    26    28    1
    49    26    29    1
@<TRIPOS>SUBSTRUCTURE
     1 ZINC000443933644        1 TEMP              0 ****  ****    0 ROOT


##########                                Name:    ZINC000945148121
##########                DOCK_Rotatable_Bonds:                   6
##########                         Heavy_Atoms:                  24
##########                    Molecular_Weight:             332.446
##########                DOCK_Rotatable_Bonds:                   6
##########                       Formal_Charge:           0.0100009
##########                     HBond_Acceptors:                   6
##########                        HBond_Donors:                   2
##########                         Heavy_Atoms:                  24
##########                          Grid_Score:          -32.824135
##########                     Grid_vdw_energy:          -32.093987
##########                      Grid_es_energy:           -0.730147
##########           Internal_energy_repulsive:           22.647728

@<TRIPOS>MOLECULE
ZINC000945148121
 52 54 1 0 0
SMALL
USER_CHARGES


@<TRIPOS>ATOM
      1 O1        -17.0478   -2.9483   54.9264 O.2     1  ZINC000945148121   -0.5100
      2 C2        -16.3058   -3.0103   53.9690 C.2     1  ZINC000945148121    0.5200
      3 C3        -16.7865   -2.5620   52.6129 C.3     1  ZINC000945148121   -0.0500
      4 C4        -15.6217   -2.0321   51.8169 C.2     1  ZINC000945148121    0.0100
      5 C5        -15.4978   -2.0673   50.4765 C.2     1  ZINC000945148121   -0.0500
      6 N6        -14.2976   -1.4827   50.1742 N.pl3   1  ZINC000945148121   -0.5700
      7 C7        -13.7295   -1.1101   51.3413 C.2     1  ZINC000945148121    0.1800
      8 N8        -14.5294   -1.4375   52.3192 N.2     1  ZINC000945148121   -0.4700
      9 N9        -15.0496   -3.4750   54.1189 N.am    1  ZINC000945148121   -0.7300
     10 C10       -14.5823   -3.9108   55.4372 C.3     1  ZINC000945148121    0.1500
     11 C11       -13.5796   -5.0549   55.2702 C.3     1  ZINC000945148121   -0.1400
     12 C12       -13.1195   -5.5310   56.6516 C.3     1  ZINC000945148121    0.1100
     13 N13       -12.6005   -4.3783   57.4004 N.am    1  ZINC000945148121   -0.6100
     14 C14       -11.3683   -4.4119   57.9456 C.2     1  ZINC000945148121    0.5200
     15 O15       -10.6760   -5.3995   57.8190 O.2     1  ZINC000945148121   -0.5400
     16 C16       -10.8510   -3.2221   58.7123 C.3     1  ZINC000945148121   -0.1000
     17 C17        -9.6965   -3.6434   59.5806 C.3     1  ZINC000945148121   -0.1200
     18 C18        -9.6403   -2.8615   60.9068 C.3     1  ZINC000945148121   -0.1200
     19 C19        -9.9367   -1.3602   60.7284 C.3     1  ZINC000945148121   -0.1200
     20 C20        -9.2715   -0.7831   59.5083 C.3     1  ZINC000945148121   -0.1200
     21 C21       -10.2738   -0.8274   58.3367 C.3     1  ZINC000945148121   -0.1200
     22 C22       -10.3545   -2.1457   57.7253 C.3     1  ZINC000945148121   -0.1000
     23 C23       -13.4501   -3.1880   57.5433 C.3     1  ZINC000945148121    0.1100
     24 C24       -13.9065   -2.7383   56.1518 C.3     1  ZINC000945148121   -0.1400
     25 H25       -17.2312   -3.4072   52.0873 H       1  ZINC000945148121    0.1000
     26 H26       -17.5320   -1.7760   52.7332 H       1  ZINC000945148121    0.1000
     27 H27       -16.2086   -2.4783   49.7749 H       1  ZINC000945148121    0.1800
     28 H28       -13.9249   -1.3590   49.2872 H       1  ZINC000945148121    0.4200
     29 H29       -12.7736   -0.6190   51.4476 H       1  ZINC000945148121    0.2100
     30 H30       -14.4550   -3.5209   53.3539 H       1  ZINC000945148121    0.4000
     31 H31       -15.4312   -4.2555   56.0278 H       1  ZINC000945148121    0.0900
     32 H32       -14.0548   -5.8805   54.7405 H       1  ZINC000945148121    0.0800
     33 H33       -12.7189   -4.7041   54.7010 H       1  ZINC000945148121    0.0700
     34 H34       -13.9630   -5.9654   57.1881 H       1  ZINC000945148121    0.0700
     35 H35       -12.3329   -6.2769   56.5378 H       1  ZINC000945148121    0.1000
     36 H36       -11.6480   -2.8111   59.3319 H       1  ZINC000945148121    0.1000
     37 H37        -9.7911   -4.7066   59.8017 H       1  ZINC000945148121    0.0700
     38 H38        -8.7670   -3.4799   59.0352 H       1  ZINC000945148121    0.0700
     39 H39       -10.3715   -3.2847   61.5957 H       1  ZINC000945148121    0.0600
     40 H40        -8.6464   -2.9745   61.3398 H       1  ZINC000945148121    0.0700
     41 H41       -11.0143   -1.2214   60.6415 H       1  ZINC000945148121    0.0600
     42 H42        -9.5839   -0.8238   61.6093 H       1  ZINC000945148121    0.0600
     43 H43        -8.9816    0.2494   59.7032 H       1  ZINC000945148121    0.0600
     44 H44        -8.3898   -1.3730   59.2583 H       1  ZINC000945148121    0.0700
     45 H45       -11.2608   -0.5485   58.7058 H       1  ZINC000945148121    0.0600
     46 H46        -9.9649   -0.1059   57.5804 H       1  ZINC000945148121    0.0600
     47 H47        -9.3661   -2.4280   57.3631 H       1  ZINC000945148121    0.0700
     48 H48       -11.0393   -2.1007   56.8784 H       1  ZINC000945148121    0.0700
     49 H49       -14.3205   -3.4314   58.1525 H       1  ZINC000945148121    0.0700
     50 H50       -12.8816   -2.3882   58.0177 H       1  ZINC000945148121    0.1000
     51 H51       -13.0426   -2.4093   55.5743 H       1  ZINC000945148121    0.0700
     52 H52       -14.6143   -1.9150   56.2496 H       1  ZINC000945148121    0.0800
@<TRIPOS>BOND
     1     1     2    2
     2     2     3    1
     3     2     9   am
     4     3     4    1
     5     3    25    1
     6     3    26    1
     7     4     8    1
     8     4     5    2
     9     5     6    1
    10     5    27    1
    11     6     7    1
    12     6    28    1
    13     7     8    2
    14     7    29    1
    15     9    10    1
    16     9    30    1
    17    10    24    1
    18    10    11    1
    19    10    31    1
    20    11    12    1
    21    11    32    1
    22    11    33    1
    23    12    13    1
    24    12    34    1
    25    12    35    1
    26    13    14   am
    27    13    23    1
    28    14    15    2
    29    14    16    1
    30    16    22    1
    31    16    17    1
    32    16    36    1
    33    17    18    1
    34    17    37    1
    35    17    38    1
    36    18    19    1
    37    18    39    1
    38    18    40    1
    39    19    20    1
    40    19    41    1
    41    19    42    1
    42    20    21    1
    43    20    43    1
    44    20    44    1
    45    21    22    1
    46    21    45    1
    47    21    46    1
    48    22    47    1
    49    22    48    1
    50    23    24    1
    51    23    49    1
    52    23    50    1
    53    24    51    1
    54    24    52    1
@<TRIPOS>SUBSTRUCTURE
     1 ZINC000945148121        1 TEMP              0 ****  ****    0 ROOT


##########                                Name:    ZINC000195331548
##########                DOCK_Rotatable_Bonds:                   7
##########                         Heavy_Atoms:                  26
##########                    Molecular_Weight:             378.539
##########                DOCK_Rotatable_Bonds:                   7
##########                       Formal_Charge:          -0.0100004
##########                     HBond_Acceptors:                   7
##########                        HBond_Donors:                   2
##########                         Heavy_Atoms:                  26
##########                          Grid_Score:          -32.806198
##########                     Grid_vdw_energy:          -32.612019
##########                      Grid_es_energy:           -0.194179
##########           Internal_energy_repulsive:           30.265429

@<TRIPOS>MOLECULE
ZINC000195331548
 56 58 1 0 0
SMALL
USER_CHARGES


@<TRIPOS>ATOM
      1 C1         -7.4240   -0.9125   51.6535 C.3     1  ZINC000195331548   -0.0800
      2 C2         -8.8430   -0.6581   52.0925 C.2     1  ZINC000195331548    0.0700
      3 C3         -9.2294    0.4878   52.6613 C.2     1  ZINC000195331548   -0.2600
      4 S4        -10.9528    0.3673   53.0074 S.3     1  ZINC000195331548    0.1100
      5 C5        -10.9807   -1.2151   52.3605 C.2     1  ZINC000195331548    0.0600
      6 C6        -12.2033   -2.0926   52.2797 C.3     1  ZINC000195331548   -0.0100
      7 H7        -12.1083   -2.7729   51.4334 H       1  ZINC000195331548    0.1100
      8 C8        -13.4479   -1.2195   52.0967 C.3     1  ZINC000195331548   -0.1200
      9 C9        -14.6905   -2.1140   52.0759 C.3     1  ZINC000195331548   -0.1100
     10 C10       -14.7537   -2.9215   53.3743 C.3     1  ZINC000195331548    0.0500
     11 N11       -13.5414   -3.7403   53.5024 N.3     1  ZINC000195331548   -0.5200
     12 C12       -13.6291   -4.6321   54.6665 C.3     1  ZINC000195331548    0.0400
     13 C13       -13.6720   -3.8088   55.9278 C.2     1  ZINC000195331548    0.5100
     14 O14       -14.7307   -3.3854   56.3398 O.2     1  ZINC000195331548   -0.4400
     15 N15       -12.5332   -3.5431   56.5982 N.am    1  ZINC000195331548   -0.7000
     16 C16       -12.5713   -2.8054   57.7254 C.2     1  ZINC000195331548    0.6900
     17 O17       -13.6324   -2.3784   58.1368 O.2     1  ZINC000195331548   -0.5300
     18 N18       -11.4329   -2.5410   58.3966 N.am    1  ZINC000195331548   -0.7300
     19 C19       -11.4746   -1.7405   59.6229 C.3     1  ZINC000195331548    0.1700
     20 H20       -12.2639   -2.1151   60.2746 H       1  ZINC000195331548    0.0900
     21 C21       -11.7561   -0.2791   59.2687 C.3     1  ZINC000195331548   -0.1300
     22 C22       -10.6481    0.2466   58.3539 C.3     1  ZINC000195331548   -0.1200
     23 C23        -9.3019    0.1467   59.0741 C.3     1  ZINC000195331548   -0.1200
     24 C24        -9.0203   -1.3148   59.4284 C.3     1  ZINC000195331548   -0.1100
     25 C25       -10.1284   -1.8405   60.3431 C.3     1  ZINC000195331548   -0.1000
     26 H26       -10.1593   -1.2449   61.2555 H       1  ZINC000195331548    0.0900
     27 C27        -9.8468   -3.3021   60.6973 C.3     1  ZINC000195331548   -0.1500
     28 C28       -12.3386   -2.9007   53.5722 C.3     1  ZINC000195331548    0.0600
     29 N29        -9.8047   -1.5473   51.9466 N.2     1  ZINC000195331548   -0.4700
     30 H30        -7.2991   -0.5867   50.6209 H       1  ZINC000195331548    0.0800
     31 H31        -6.7401   -0.3568   52.2951 H       1  ZINC000195331548    0.0800
     32 H32        -7.2064   -1.9781   51.7272 H       1  ZINC000195331548    0.0800
     33 H33        -8.5977    1.3389   52.8687 H       1  ZINC000195331548    0.1800
     34 H34       -13.5217   -0.5127   52.9232 H       1  ZINC000195331548    0.0600
     35 H35       -13.3749   -0.6738   51.1560 H       1  ZINC000195331548    0.0700
     36 H36       -15.5832   -1.4947   51.9886 H       1  ZINC000195331548    0.0800
     37 H37       -14.6347   -2.7947   51.2263 H       1  ZINC000195331548    0.0800
     38 H38       -15.6296   -3.5700   53.3564 H       1  ZINC000195331548    0.0800
     39 H39       -14.8233   -2.2405   54.2224 H       1  ZINC000195331548    0.0400
     40 H40       -12.7577   -5.2866   54.6892 H       1  ZINC000195331548    0.1200
     41 H41       -14.5345   -5.2348   54.5950 H       1  ZINC000195331548    0.0700
     42 H42       -11.6864   -3.8828   56.2692 H       1  ZINC000195331548    0.4100
     43 H43       -10.5859   -2.8807   58.0677 H       1  ZINC000195331548    0.4000
     44 H44       -11.7871    0.3165   60.1811 H       1  ZINC000195331548    0.0700
     45 H45       -12.7152   -0.2078   58.7556 H       1  ZINC000195331548    0.0700
     46 H46       -10.8487    1.2879   58.1016 H       1  ZINC000195331548    0.0600
     47 H47       -10.6171   -0.3488   57.4415 H       1  ZINC000195331548    0.0600
     48 H48        -8.5125    0.5212   58.4224 H       1  ZINC000195331548    0.0600
     49 H49        -9.3329    0.7422   59.9865 H       1  ZINC000195331548    0.0600
     50 H50        -8.9893   -1.9103   58.5159 H       1  ZINC000195331548    0.0600
     51 H51        -8.0613   -1.3861   59.9415 H       1  ZINC000195331548    0.0700
     52 H52        -9.8158   -3.8976   59.7850 H       1  ZINC000195331548    0.0500
     53 H53        -8.8877   -3.3732   61.2104 H       1  ZINC000195331548    0.0600
     54 H54       -10.6361   -3.6766   61.3490 H       1  ZINC000195331548    0.0600
     55 H55       -12.4196   -2.2198   54.4195 H       1  ZINC000195331548    0.0400
     56 H56       -11.4604   -3.5341   53.6981 H       1  ZINC000195331548    0.0900
@<TRIPOS>BOND
     1     1     2    1
     2     1    30    1
     3     1    31    1
     4     1    32    1
     5     2    29    1
     6     2     3    2
     7     3     4    1
     8     3    33    1
     9     4     5    1
    10     5     6    1
    11     5    29    2
    12     6     7    1
    13     6    28    1
    14     6     8    1
    15     8     9    1
    16     8    34    1
    17     8    35    1
    18     9    10    1
    19     9    36    1
    20     9    37    1
    21    10    11    1
    22    10    38    1
    23    10    39    1
    24    11    12    1
    25    11    28    1
    26    12    13    1
    27    12    40    1
    28    12    41    1
    29    13    14    2
    30    13    15   am
    31    15    16   am
    32    15    42    1
    33    16    17    2
    34    16    18   am
    35    18    19    1
    36    18    43    1
    37    19    20    1
    38    19    25    1
    39    19    21    1
    40    21    22    1
    41    21    44    1
    42    21    45    1
    43    22    23    1
    44    22    46    1
    45    22    47    1
    46    23    24    1
    47    23    48    1
    48    23    49    1
    49    24    25    1
    50    24    50    1
    51    24    51    1
    52    25    26    1
    53    25    27    1
    54    27    52    1
    55    27    53    1
    56    27    54    1
    57    28    55    1
    58    28    56    1
@<TRIPOS>SUBSTRUCTURE
     1 ZINC000195331548        1 TEMP              0 ****  ****    0 ROOT


##########                                Name:    ZINC001362451754
##########                DOCK_Rotatable_Bonds:                   6
##########                         Heavy_Atoms:                  22
##########                    Molecular_Weight:             339.846
##########                DOCK_Rotatable_Bonds:                   6
##########                       Formal_Charge:         -0.00999987
##########                     HBond_Acceptors:                   7
##########                        HBond_Donors:                   1
##########                         Heavy_Atoms:                  22
##########                          Grid_Score:          -32.764809
##########                     Grid_vdw_energy:          -32.127419
##########                      Grid_es_energy:           -0.637390
##########           Internal_energy_repulsive:           16.345390

@<TRIPOS>MOLECULE
ZINC001362451754
 40 42 1 0 0
SMALL
USER_CHARGES


@<TRIPOS>ATOM
      1 C1        -14.6750   -3.6247   54.9110 C.3     1  ZINC001362451754   -0.1700
      2 C2        -13.2888   -4.1269   54.5016 C.3     1  ZINC001362451754    0.1400
      3 H3        -13.3404   -5.1801   54.2257 H       1  ZINC001362451754    0.0800
      4 C4        -12.7605   -3.2979   53.3119 C.3     1  ZINC001362451754   -0.1000
      5 H5        -12.1827   -3.9240   52.6320 H       1  ZINC001362451754    0.1000
      6 C6        -13.9135   -2.6150   52.5735 C.3     1  ZINC001362451754    0.0900
      7 O7        -13.4091   -1.9510   51.4130 O.3     1  ZINC001362451754   -0.5700
      8 C8        -11.8491   -2.2466   53.9984 C.3     1  ZINC001362451754   -0.1200
      9 C9        -11.2492   -3.0664   55.1651 C.3     1  ZINC001362451754    0.0900
     10 N10       -12.3434   -3.9468   55.6131 N.am    1  ZINC001362451754   -0.6100
     11 C11       -12.4609   -4.4918   56.8402 C.2     1  ZINC001362451754    0.6100
     12 O12       -13.4108   -5.2067   57.1001 O.2     1  ZINC001362451754   -0.5200
     13 C13       -11.4444   -4.2232   57.8616 C.2     1  ZINC001362451754   -0.2500
     14 C14       -10.4093   -5.0537   58.1875 C.2     1  ZINC001362451754   -0.0500
     15 C15        -9.6072   -4.5564   59.1871 C.2     1  ZINC001362451754   -0.1100
     16 C16        -9.9650   -3.3558   59.6576 C.2     1  ZINC001362451754   -0.2500
     17 C17        -9.2357   -2.6137   60.7477 C.3     1  ZINC001362451754    0.2100
     18 N18        -9.5499   -1.1855   60.6607 N.pl3   1  ZINC001362451754   -0.3700
     19 C19        -9.9718   -0.4015   61.6761 C.2     1  ZINC001362451754    0.0700
     20 C20       -10.1460    0.8486   61.1868 C.2     1  ZINC001362451754   -0.1800
     21 Cl21      -10.6764    2.2340   62.0886 Cl      1  ZINC001362451754   -0.0400
     22 C22        -9.8289    0.8253   59.8241 C.2     1  ZINC001362451754    0.0700
     23 N23        -9.4716   -0.3931   59.5082 N.2     1  ZINC001362451754   -0.2700
     24 S24       -11.3619   -2.7811   58.8642 S.3     1  ZINC001362451754    0.2300
     25 H25       -14.6123   -2.5731   55.1910 H       1  ZINC001362451754    0.0600
     26 H26       -15.3640   -3.7374   54.0739 H       1  ZINC001362451754    0.0700
     27 H27       -15.0359   -4.2058   55.7596 H       1  ZINC001362451754    0.0700
     28 H28       -14.6471   -3.3635   52.2738 H       1  ZINC001362451754    0.0500
     29 H29       -14.3862   -1.8866   53.2324 H       1  ZINC001362451754    0.0500
     30 H30       -12.4587   -2.0653   51.2764 H       1  ZINC001362451754    0.3800
     31 H31       -11.0693   -1.9023   53.3190 H       1  ZINC001362451754    0.0900
     32 H32       -12.4348   -1.4078   54.3747 H       1  ZINC001362451754    0.0800
     33 H33       -10.9390   -2.4050   55.9740 H       1  ZINC001362451754    0.0800
     34 H34       -10.4048   -3.6595   54.8139 H       1  ZINC001362451754    0.0800
     35 H35       -10.2406   -6.0078   57.7103 H       1  ZINC001362451754    0.1600
     36 H36        -8.7489   -5.0937   59.5627 H       1  ZINC001362451754    0.1500
     37 H37        -9.5484   -2.9960   61.7194 H       1  ZINC001362451754    0.1100
     38 H38        -8.1617   -2.7573   60.6293 H       1  ZINC001362451754    0.1100
     39 H39       -10.1380   -0.7150   62.6962 H       1  ZINC001362451754    0.1800
     40 H40        -9.8719    1.6677   59.1495 H       1  ZINC001362451754    0.1900
@<TRIPOS>BOND
     1     1     2    1
     2     1    25    1
     3     1    26    1
     4     1    27    1
     5     2     3    1
     6     2    10    1
     7     2     4    1
     8     4     5    1
     9     4     6    1
    10     4     8    1
    11     6     7    1
    12     6    28    1
    13     6    29    1
    14     7    30    1
    15     8     9    1
    16     8    31    1
    17     8    32    1
    18     9    10    1
    19     9    33    1
    20     9    34    1
    21    10    11   am
    22    11    12    2
    23    11    13    1
    24    13    24    1
    25    13    14    2
    26    14    15    1
    27    14    35    1
    28    15    16    2
    29    15    36    1
    30    16    17    1
    31    16    24    1
    32    17    18    1
    33    17    37    1
    34    17    38    1
    35    18    23    1
    36    18    19    1
    37    19    20    2
    38    19    39    1
    39    20    21    1
    40    20    22    1
    41    22    23    2
    42    22    40    1
@<TRIPOS>SUBSTRUCTURE
     1 ZINC001362451754        1 TEMP              0 ****  ****    0 ROOT


##########                                Name:    ZINC000534890536
##########                DOCK_Rotatable_Bonds:                   6
##########                         Heavy_Atoms:                  30
##########                    Molecular_Weight:             411.476
##########                DOCK_Rotatable_Bonds:                   6
##########                       Formal_Charge:          0.00999957
##########                     HBond_Acceptors:                   7
##########                        HBond_Donors:                   1
##########                         Heavy_Atoms:                  30
##########                          Grid_Score:          -32.762947
##########                     Grid_vdw_energy:          -32.632908
##########                      Grid_es_energy:           -0.130041
##########           Internal_energy_repulsive:           15.176774

@<TRIPOS>MOLECULE
ZINC000534890536
 56 59 1 0 0
SMALL
USER_CHARGES


@<TRIPOS>ATOM
      1 C1         -8.9251   -0.1728   63.8477 C.3     1  ZINC000534890536    0.0300
      2 O2         -8.6468   -1.1329   62.8265 O.3     1  ZINC000534890536   -0.3200
      3 C3         -9.3396   -1.0148   61.6633 C.ar    1  ZINC000534890536    0.1300
      4 C4         -9.0762   -1.8750   60.6073 C.ar    1  ZINC000534890536   -0.2100
      5 C5         -9.7822   -1.7532   59.4261 C.ar    1  ZINC000534890536   -0.0700
      6 C6        -10.7503   -0.7746   59.2957 C.ar    1  ZINC000534890536   -0.1100
      7 C7        -11.5185   -0.6436   58.0059 C.3     1  ZINC000534890536   -0.0600
      8 H8        -12.3269    0.0805   58.1069 H       1  ZINC000534890536    0.0900
      9 C9        -12.0602   -2.0205   57.5389 C.3     1  ZINC000534890536   -0.1200
     10 C10       -12.1725   -1.8470   56.0095 C.3     1  ZINC000534890536    0.1000
     11 N11       -11.2633   -0.7571   55.6260 N.am    1  ZINC000534890536   -0.6400
     12 C12       -11.0871   -0.2843   54.3761 C.2     1  ZINC000534890536    0.7300
     13 O13       -11.7109   -0.7661   53.4503 O.2     1  ZINC000534890536   -0.5700
     14 N14       -10.2194    0.7224   54.1525 N.am    1  ZINC000534890536   -0.7300
     15 C15       -10.0267    1.2352   52.7938 C.3     1  ZINC000534890536    0.1600
     16 H16       -10.5231    0.5741   52.0835 H       1  ZINC000534890536    0.1200
     17 C17       -10.6295    2.6383   52.6895 C.3     1  ZINC000534890536   -0.1300
     18 C18       -10.1804    3.2613   51.3623 C.3     1  ZINC000534890536   -0.1300
     19 C19        -8.6728    3.5094   51.4231 C.3     1  ZINC000534890536    0.1100
     20 N20        -7.9742    2.3035   51.8502 N.am    1  ZINC000534890536   -0.5600
     21 C21        -6.6035    2.2082   51.5790 C.ar    1  ZINC000534890536    0.1000
     22 C22        -6.1641    1.5466   50.4411 C.ar    1  ZINC000534890536   -0.0800
     23 C23        -4.8111    1.4545   50.1758 C.ar    1  ZINC000534890536   -0.1200
     24 C24        -3.8943    2.0198   51.0423 C.ar    1  ZINC000534890536   -0.0800
     25 C25        -4.3272    2.6802   52.1779 C.ar    1  ZINC000534890536   -0.1500
     26 C26        -5.6797    2.7812   52.4467 C.ar    1  ZINC000534890536    0.1100
     27 F27        -6.1029    3.4265   53.5556 F       1  ZINC000534890536   -0.1300
     28 C28        -8.5581    1.2876   52.4841 C.2     1  ZINC000534890536    0.5000
     29 O29        -7.8669    0.3521   52.8282 O.2     1  ZINC000534890536   -0.5100
     30 C30       -10.5773   -0.2653   56.8351 C.3     1  ZINC000534890536    0.1300
     31 C31       -11.0150    0.0837   60.3470 C.ar    1  ZINC000534890536   -0.0700
     32 C32       -10.3154   -0.0373   61.5320 C.ar    1  ZINC000534890536   -0.1500
     33 H33        -8.7045    0.8277   63.4757 H       1  ZINC000534890536    0.0600
     34 H34        -9.9772   -0.2330   64.1261 H       1  ZINC000534890536    0.0600
     35 H35        -8.3058   -0.3807   64.7204 H       1  ZINC000534890536    0.1000
     36 H36        -8.3197   -2.6391   60.7083 H       1  ZINC000534890536    0.1300
     37 H37        -9.5776   -2.4226   58.6037 H       1  ZINC000534890536    0.1300
     38 H38       -11.3569   -2.8156   57.7862 H       1  ZINC000534890536    0.0800
     39 H39       -13.0383   -2.2189   57.9773 H       1  ZINC000534890536    0.0900
     40 H40       -11.8774   -2.7693   55.5092 H       1  ZINC000534890536    0.0700
     41 H41       -13.1963   -1.5879   55.7399 H       1  ZINC000534890536    0.0700
     42 H42        -9.7226    1.1077   54.8913 H       1  ZINC000534890536    0.4000
     43 H43       -11.7172    2.5732   52.7149 H       1  ZINC000534890536    0.0900
     44 H44       -10.2786    3.2511   53.5199 H       1  ZINC000534890536    0.0800
     45 H45       -10.4060    2.5787   50.5430 H       1  ZINC000534890536    0.0800
     46 H46       -10.7007    4.2066   51.2074 H       1  ZINC000534890536    0.1000
     47 H47        -8.3156    3.8020   50.4357 H       1  ZINC000534890536    0.0800
     48 H48        -8.4682    4.3137   52.1298 H       1  ZINC000534890536    0.0700
     49 H49        -6.8790    1.1039   49.7634 H       1  ZINC000534890536    0.1300
     50 H50        -4.4692    0.9396   49.2901 H       1  ZINC000534890536    0.1300
     51 H51        -2.8375    1.9453   50.8323 H       1  ZINC000534890536    0.1400
     52 H52        -3.6084    3.1208   52.8529 H       1  ZINC000534890536    0.1400
     53 H53       -10.4484    0.8160   56.7848 H       1  ZINC000534890536    0.0800
     54 H54        -9.6120   -0.7582   56.9506 H       1  ZINC000534890536    0.0700
     55 H55       -11.7718    0.8470   60.2428 H       1  ZINC000534890536    0.1300
     56 H56       -10.5225    0.6333   62.3528 H       1  ZINC000534890536    0.1300
@<TRIPOS>BOND
     1     1     2    1
     2     1    33    1
     3     1    34    1
     4     1    35    1
     5     2     3    1
     6     3    32   ar
     7     3     4   ar
     8     4     5   ar
     9     4    36    1
    10     5     6   ar
    11     5    37    1
    12     6     7    1
    13     6    31   ar
    14     7     8    1
    15     7    30    1
    16     7     9    1
    17     9    10    1
    18     9    38    1
    19     9    39    1
    20    10    11    1
    21    10    40    1
    22    10    41    1
    23    11    12   am
    24    11    30    1
    25    12    13    2
    26    12    14   am
    27    14    15    1
    28    14    42    1
    29    15    16    1
    30    15    28    1
    31    15    17    1
    32    17    18    1
    33    17    43    1
    34    17    44    1
    35    18    19    1
    36    18    45    1
    37    18    46    1
    38    19    20    1
    39    19    47    1
    40    19    48    1
    41    20    21    1
    42    20    28   am
    43    21    26   ar
    44    21    22   ar
    45    22    23   ar
    46    22    49    1
    47    23    24   ar
    48    23    50    1
    49    24    25   ar
    50    24    51    1
    51    25    26   ar
    52    25    52    1
    53    26    27    1
    54    28    29    2
    55    30    53    1
    56    30    54    1
    57    31    32   ar
    58    31    55    1
    59    32    56    1
@<TRIPOS>SUBSTRUCTURE
     1 ZINC000534890536        1 TEMP              0 ****  ****    0 ROOT


##########                                Name:    ZINC000894043060
##########                DOCK_Rotatable_Bonds:                  11
##########                         Heavy_Atoms:                  26
##########                    Molecular_Weight:             396.812
##########                DOCK_Rotatable_Bonds:                  11
##########                       Formal_Charge:          -0.0199999
##########                     HBond_Acceptors:                   9
##########                        HBond_Donors:                   2
##########                         Heavy_Atoms:                  26
##########                          Grid_Score:          -32.762630
##########                     Grid_vdw_energy:          -32.725521
##########                      Grid_es_energy:           -0.037110
##########           Internal_energy_repulsive:           12.099792

@<TRIPOS>MOLECULE
ZINC000894043060
 47 47 1 0 0
SMALL
USER_CHARGES


@<TRIPOS>ATOM
      1 C1         -9.1000    3.2890   57.6489 C.3     1  ZINC000894043060   -0.1700
      2 C2         -8.8345    2.0243   56.8296 C.3     1  ZINC000894043060    0.1000
      3 H3         -9.6212    1.9019   56.0851 H       1  ZINC000894043060    0.1100
      4 N4         -8.8189    0.8604   57.7192 N.am    1  ZINC000894043060   -0.7300
      5 C5         -9.5020   -0.2523   57.3853 C.2     1  ZINC000894043060    0.5200
      6 O6        -10.1308   -0.2896   56.3489 O.2     1  ZINC000894043060   -0.5200
      7 C7         -9.4844   -1.4501   58.2996 C.3     1  ZINC000894043060   -0.1400
      8 C8        -10.6434   -1.3501   59.2935 C.3     1  ZINC000894043060   -0.0200
      9 C9        -11.3152   -2.7176   59.4329 C.3     1  ZINC000894043060   -0.1400
     10 C10       -12.4052   -2.8493   58.4006 C.2     1  ZINC000894043060    0.5200
     11 O11       -13.2811   -2.0131   58.3334 O.2     1  ZINC000894043060   -0.5200
     12 N12       -12.4068   -3.8965   57.5521 N.am    1  ZINC000894043060   -0.7300
     13 C13       -13.4654   -4.0237   56.5475 C.3     1  ZINC000894043060    0.1000
     14 H14       -14.3347   -3.4453   56.8605 H       1  ZINC000894043060    0.1200
     15 C15       -12.9591   -3.4963   55.2034 C.3     1  ZINC000894043060   -0.1700
     16 C16       -13.8572   -5.4955   56.4029 C.3     1  ZINC000894043060    0.2600
     17 F17       -14.2934   -5.9856   57.6386 F       1  ZINC000894043060   -0.1900
     18 F18       -14.8877   -5.6138   55.4642 F       1  ZINC000894043060   -0.2000
     19 C19       -10.1178   -0.9095   60.6354 C.ar    1  ZINC000894043060   -0.0600
     20 C20        -9.2787   -1.7395   61.3551 C.ar    1  ZINC000894043060   -0.1200
     21 C21        -8.7963   -1.3360   62.5859 C.ar    1  ZINC000894043060   -0.1200
     22 C22        -9.1534   -0.1011   63.0976 C.ar    1  ZINC000894043060   -0.0400
     23 Cl23       -8.5475    0.4066   64.6431 Cl      1  ZINC000894043060   -0.0800
     24 C24        -9.9932    0.7291   62.3767 C.ar    1  ZINC000894043060   -0.1100
     25 C25       -10.4704    0.3269   61.1435 C.ar    1  ZINC000894043060   -0.0400
     26 C26        -7.4813    2.1469   56.1264 C.3     1  ZINC000894043060    0.2600
     27 F27        -7.4456    3.3343   55.3875 F       1  ZINC000894043060   -0.2000
     28 F28        -6.4591    2.1609   57.0813 F       1  ZINC000894043060   -0.1900
     29 H29        -8.3134    3.4113   58.3934 H       1  ZINC000894043060    0.0600
     30 H30        -9.1116    4.1548   56.9869 H       1  ZINC000894043060    0.0800
     31 H31       -10.0641    3.2016   58.1498 H       1  ZINC000894043060    0.0800
     32 H32        -8.3169    0.8908   58.5487 H       1  ZINC000894043060    0.4000
     33 H33        -9.5901   -2.3598   57.7087 H       1  ZINC000894043060    0.1000
     34 H34        -8.5405   -1.4779   58.8439 H       1  ZINC000894043060    0.1000
     35 H35       -11.3706   -0.6232   58.9316 H       1  ZINC000894043060    0.1000
     36 H36       -10.5749   -3.5032   59.2818 H       1  ZINC000894043060    0.1000
     37 H37       -11.7457   -2.8110   60.4298 H       1  ZINC000894043060    0.1000
     38 H38       -11.7069   -4.5660   57.6066 H       1  ZINC000894043060    0.4000
     39 H39       -12.0897   -4.0747   54.8904 H       1  ZINC000894043060    0.0700
     40 H40       -13.7467   -3.5910   54.4559 H       1  ZINC000894043060    0.0800
     41 H41       -12.6799   -2.4477   55.3063 H       1  ZINC000894043060    0.0700
     42 H42       -12.9934   -6.0703   56.0687 H       1  ZINC000894043060    0.1200
     43 H43        -9.0004   -2.7036   60.9558 H       1  ZINC000894043060    0.1200
     44 H44        -8.1411   -1.9847   63.1483 H       1  ZINC000894043060    0.1300
     45 H45       -10.2725    1.6930   62.7758 H       1  ZINC000894043060    0.1300
     46 H46       -11.1257    0.9750   60.5806 H       1  ZINC000894043060    0.1300
     47 H47        -7.3415    1.2981   55.4570 H       1  ZINC000894043060    0.1100
@<TRIPOS>BOND
     1     1     2    1
     2     1    29    1
     3     1    30    1
     4     1    31    1
     5     2     3    1
     6     2     4    1
     7     2    26    1
     8     4     5   am
     9     4    32    1
    10     5     6    2
    11     5     7    1
    12     7     8    1
    13     7    33    1
    14     7    34    1
    15     8     9    1
    16     8    19    1
    17     8    35    1
    18     9    10    1
    19     9    36    1
    20     9    37    1
    21    10    11    2
    22    10    12   am
    23    12    13    1
    24    12    38    1
    25    13    14    1
    26    13    15    1
    27    13    16    1
    28    15    39    1
    29    15    40    1
    30    15    41    1
    31    16    17    1
    32    16    18    1
    33    16    42    1
    34    19    25   ar
    35    19    20   ar
    36    20    21   ar
    37    20    43    1
    38    21    22   ar
    39    21    44    1
    40    22    23    1
    41    22    24   ar
    42    24    25   ar
    43    24    45    1
    44    25    46    1
    45    26    27    1
    46    26    28    1
    47    26    47    1
@<TRIPOS>SUBSTRUCTURE
     1 ZINC000894043060        1 TEMP              0 ****  ****    0 ROOT


##########                                Name:    ZINC000550952205
##########                DOCK_Rotatable_Bonds:                   7
##########                         Heavy_Atoms:                  28
##########                    Molecular_Weight:             407.484
##########                DOCK_Rotatable_Bonds:                   7
##########                       Formal_Charge:        -2.68221e-07
##########                     HBond_Acceptors:                   8
##########                        HBond_Donors:                   2
##########                         Heavy_Atoms:                  28
##########                          Grid_Score:          -32.757385
##########                     Grid_vdw_energy:          -31.392269
##########                      Grid_es_energy:           -1.365116
##########           Internal_energy_repulsive:            5.433180

@<TRIPOS>MOLECULE
ZINC000550952205
 51 54 1 0 0
SMALL
USER_CHARGES


@<TRIPOS>ATOM
      1 O1         -8.2741   -0.2568   63.5359 O.2     1  ZINC000550952205   -0.5100
      2 C2         -9.4286   -0.1136   63.1902 C.2     1  ZINC000550952205    0.5100
      3 N3        -10.2600    0.6563   63.9198 N.am    1  ZINC000550952205   -0.7000
      4 C4         -9.7717    1.3156   65.1337 C.3     1  ZINC000550952205    0.1200
      5 C5        -10.5195    2.6353   65.3333 C.3     1  ZINC000550952205   -0.0900
      6 H6        -10.1533    3.1314   66.2322 H       1  ZINC000550952205    0.1000
      7 C7        -10.3009    3.5257   64.1401 C.3     1  ZINC000550952205   -0.1300
      8 C8        -10.2490    5.0179   64.5197 C.3     1  ZINC000550952205   -0.1200
      9 C9        -11.3154    5.4069   65.5613 C.3     1  ZINC000550952205   -0.1300
     10 C10       -12.6489    4.7662   65.2870 C.3     1  ZINC000550952205   -0.1500
     11 C11       -12.7417    3.4599   66.1019 C.3     1  ZINC000550952205    0.3000
     12 F12       -12.1978    3.6788   67.3721 F       1  ZINC000550952205   -0.2000
     13 F13       -14.0883    3.1072   66.2408 F       1  ZINC000550952205   -0.2000
     14 C14       -12.0303    2.3587   65.4732 C.3     1  ZINC000550952205   -0.1700
     15 C15        -9.9263   -0.7855   61.9530 C.2     1  ZINC000550952205    0.5100
     16 O16       -11.1078   -0.7505   61.6768 O.2     1  ZINC000550952205   -0.4900
     17 N17        -9.0637   -1.4308   61.1431 N.am    1  ZINC000550952205   -0.6400
     18 C18        -9.5296   -2.0598   59.9849 C.ar    1  ZINC000550952205    0.1500
     19 C19        -9.5062   -3.4502   59.8882 C.ar    1  ZINC000550952205   -0.1200
     20 C20        -9.9566   -4.0763   58.7669 C.ar    1  ZINC000550952205   -0.0400
     21 C21       -10.4560   -3.3289   57.6808 C.ar    1  ZINC000550952205    0.0800
     22 N22       -10.9418   -3.7527   56.4980 N.2     1  ZINC000550952205   -0.4700
     23 C23       -11.3399   -2.8684   55.6641 C.2     1  ZINC000550952205    0.1200
     24 C24       -11.9077   -3.1811   54.3036 C.3     1  ZINC000550952205   -0.1100
     25 C25       -11.1786   -2.6104   53.0855 C.3     1  ZINC000550952205   -0.1500
     26 C26       -11.0961   -4.1065   53.3949 C.3     1  ZINC000550952205   -0.1500
     27 S27       -11.1487   -1.2905   56.2848 S.3     1  ZINC000550952205    0.1200
     28 C28       -10.4788   -1.9328   57.7813 C.ar    1  ZINC000550952205   -0.1700
     29 C29       -10.0202   -1.3033   58.9352 C.ar    1  ZINC000550952205   -0.0700
     30 H30       -11.1817    0.7739   63.6415 H       1  ZINC000550952205    0.4200
     31 H31        -9.9429    0.6674   65.9931 H       1  ZINC000550952205    0.0800
     32 H32        -8.7045    1.5140   65.0350 H       1  ZINC000550952205    0.0800
     33 H33        -9.3607    3.2504   63.6622 H       1  ZINC000550952205    0.0700
     34 H34       -11.1136    3.3704   63.4305 H       1  ZINC000550952205    0.0700
     35 H35        -9.2626    5.2434   64.9253 H       1  ZINC000550952205    0.0700
     36 H36       -10.4016    5.6149   63.6206 H       1  ZINC000550952205    0.0700
     37 H37       -10.9726    5.0988   66.5490 H       1  ZINC000550952205    0.0800
     38 H38       -11.4365    6.4902   65.5543 H       1  ZINC000550952205    0.0700
     39 H39       -13.4490    5.4427   65.5874 H       1  ZINC000550952205    0.0900
     40 H40       -12.7354    4.5414   64.2239 H       1  ZINC000550952205    0.1000
     41 H41       -12.4466    2.1908   64.4799 H       1  ZINC000550952205    0.1000
     42 H42       -12.1742    1.4585   66.0709 H       1  ZINC000550952205    0.1000
     43 H43        -8.1196   -1.4586   61.3637 H       1  ZINC000550952205    0.4300
     44 H44        -9.1262   -4.0368   60.7115 H       1  ZINC000550952205    0.1400
     45 H45        -9.9308   -5.1544   58.7085 H       1  ZINC000550952205    0.1400
     46 H46       -12.9943   -3.2519   54.2526 H       1  ZINC000550952205    0.1300
     47 H47       -11.7855   -2.3055   52.2329 H       1  ZINC000550952205    0.1000
     48 H48       -10.2883   -2.0087   53.2682 H       1  ZINC000550952205    0.1100
     49 H49       -10.1514   -4.4892   53.7811 H       1  ZINC000550952205    0.1000
     50 H50       -11.6486   -4.7859   52.7458 H       1  ZINC000550952205    0.1100
     51 H51       -10.0450   -0.2263   59.0100 H       1  ZINC000550952205    0.1400
@<TRIPOS>BOND
     1     1     2    2
     2     2     3   am
     3     2    15    1
     4     3     4    1
     5     3    30    1
     6     4     5    1
     7     4    31    1
     8     4    32    1
     9     5     6    1
    10     5    14    1
    11     5     7    1
    12     7     8    1
    13     7    33    1
    14     7    34    1
    15     8     9    1
    16     8    35    1
    17     8    36    1
    18     9    10    1
    19     9    37    1
    20     9    38    1
    21    10    11    1
    22    10    39    1
    23    10    40    1
    24    11    12    1
    25    11    13    1
    26    11    14    1
    27    14    41    1
    28    14    42    1
    29    15    16    2
    30    15    17   am
    31    17    18    1
    32    17    43    1
    33    18    29   ar
    34    18    19   ar
    35    19    20   ar
    36    19    44    1
    37    20    21   ar
    38    20    45    1
    39    21    28   ar
    40    21    22    1
    41    22    23    2
    42    23    24    1
    43    23    27    1
    44    24    26    1
    45    24    25    1
    46    24    46    1
    47    25    26    1
    48    25    47    1
    49    25    48    1
    50    26    49    1
    51    26    50    1
    52    27    28    1
    53    28    29   ar
    54    29    51    1
@<TRIPOS>SUBSTRUCTURE
     1 ZINC000550952205        1 TEMP              0 ****  ****    0 ROOT


##########                                Name:    ZINC000350493047
##########                DOCK_Rotatable_Bonds:                   7
##########                         Heavy_Atoms:                  24
##########                    Molecular_Weight:             330.387
##########                DOCK_Rotatable_Bonds:                   7
##########                       Formal_Charge:          -0.0300002
##########                     HBond_Acceptors:                   7
##########                        HBond_Donors:                   3
##########                         Heavy_Atoms:                  24
##########                          Grid_Score:          -32.739429
##########                     Grid_vdw_energy:          -32.527519
##########                      Grid_es_energy:           -0.211910
##########           Internal_energy_repulsive:            9.172438

@<TRIPOS>MOLECULE
ZINC000350493047
 46 48 1 0 0
SMALL
USER_CHARGES


@<TRIPOS>ATOM
      1 C1         -8.3915    0.5536   64.8810 C.3     1  <0>        -0.1600
      2 C2         -9.3691    0.8200   63.7346 C.3     1  <0>         0.2600
      3 H3         -9.0834    1.7370   63.2192 H       1  <0>         0.1200
      4 N4        -10.7244    0.9638   64.2720 N.am    1  <0>        -0.7400
      5 C5        -11.6453    1.6784   63.5955 C.2     1  <0>         0.7100
      6 N6        -12.8926    1.8094   64.0891 N.am    1  <0>        -0.8600
      7 O7        -11.3509    2.2050   62.5398 O.2     1  <0>        -0.5900
      8 C8         -9.3329   -0.3333   62.7652 C.2     1  <0>         0.1700
      9 N9         -8.4704   -1.3064   62.7618 N.2     1  <0>        -0.3800
     10 O10        -8.7064   -2.0800   61.8579 O.3     1  <0>         0.0900
     11 C11        -9.7811   -1.6600   61.1721 C.2     1  <0>         0.2400
     12 C12       -10.3927   -2.3187   60.0007 C.ar    1  <0>        -0.0800
     13 C13        -9.8603   -3.5143   59.5124 C.ar    1  <0>        -0.0200
     14 C14       -10.4337   -4.1258   58.4192 C.ar    1  <0>        -0.2200
     15 C15       -11.5400   -3.5547   57.8022 C.ar    1  <0>         0.1700
     16 O16       -12.1021   -4.1603   56.7248 O.3     1  <0>        -0.3000
     17 C17       -12.3774   -3.3383   55.5888 C.3     1  <0>         0.0800
     18 C18       -11.0657   -2.7799   55.0334 C.3     1  <0>        -0.1500
     19 C19       -11.3605   -1.8999   53.8170 C.3     1  <0>        -0.1200
     20 C20       -12.0560   -2.7348   52.7400 C.3     1  <0>        -0.1300
     21 C21       -13.3677   -3.2933   53.2953 C.3     1  <0>        -0.1200
     22 C22       -13.0729   -4.1733   54.5117 C.3     1  <0>        -0.1200
     23 C23       -12.0728   -2.3658   58.2851 C.ar    1  <0>        -0.1600
     24 C24       -11.5088   -1.7511   59.3814 C.ar    1  <0>        -0.0300
     25 N25       -10.1883   -0.5445   61.7530 N.2     1  <0>        -0.4700
     26 H26        -8.6772   -0.3634   65.3963 H       1  <0>         0.0600
     27 H27        -7.3832    0.4465   64.4812 H       1  <0>         0.0700
     28 H28        -8.4178    1.3876   65.5821 H       1  <0>         0.0800
     29 H29       -10.9589    0.5446   65.1147 H       1  <0>         0.4000
     30 H30       -13.5556    2.3227   63.6015 H       1  <0>         0.4000
     31 H31       -13.1272    1.3903   64.9318 H       1  <0>         0.4200
     32 H32        -9.0000   -3.9584   59.9909 H       1  <0>         0.1400
     33 H33       -10.0227   -5.0501   58.0410 H       1  <0>         0.1400
     34 H34       -13.0265   -2.5143   55.8852 H       1  <0>         0.0800
     35 H35       -10.5703   -2.1851   55.8007 H       1  <0>         0.0700
     36 H36       -10.4167   -3.6039   54.7369 H       1  <0>         0.0800
     37 H37       -12.0096   -1.0759   54.1135 H       1  <0>         0.0600
     38 H38       -10.4261   -1.5020   53.4213 H       1  <0>         0.0700
     39 H39       -12.2660   -2.1078   51.8734 H       1  <0>         0.0700
     40 H40       -11.4070   -3.5588   52.4435 H       1  <0>         0.0700
     41 H41       -14.0167   -2.4693   53.5919 H       1  <0>         0.0700
     42 H42       -13.8631   -3.8881   52.5280 H       1  <0>         0.0700
     43 H43       -12.4238   -4.9973   54.2152 H       1  <0>         0.0800
     44 H44       -14.0074   -4.5711   54.9073 H       1  <0>         0.0700
     45 H45       -12.9331   -1.9253   57.8030 H       1  <0>         0.1400
     46 H46       -11.9237   -0.8272   59.7564 H       1  <0>         0.1400
@<TRIPOS>BOND
     1     1     2    1
     2     1    26    1
     3     1    27    1
     4     1    28    1
     5     2     3    1
     6     2     4    1
     7     2     8    1
     8     4     5   am
     9     4    29    1
    10     5     6   am
    11     5     7    2
    12     6    30    1
    13     6    31    1
    14     8    25    1
    15     8     9    2
    16     9    10    1
    17    10    11    1
    18    11    12    1
    19    11    25    2
    20    12    24   ar
    21    12    13   ar
    22    13    14   ar
    23    13    32    1
    24    14    15   ar
    25    14    33    1
    26    15    16    1
    27    15    23   ar
    28    16    17    1
    29    17    22    1
    30    17    18    1
    31    17    34    1
    32    18    19    1
    33    18    35    1
    34    18    36    1
    35    19    20    1
    36    19    37    1
    37    19    38    1
    38    20    21    1
    39    20    39    1
    40    20    40    1
    41    21    22    1
    42    21    41    1
    43    21    42    1
    44    22    43    1
    45    22    44    1
    46    23    24   ar
    47    23    45    1
    48    24    46    1
@<TRIPOS>SUBSTRUCTURE
     1 <0>         1 TEMP              0 ****  ****    0 ROOT


##########                                Name:    ZINC001064463188
##########                DOCK_Rotatable_Bonds:                   6
##########                         Heavy_Atoms:                  25
##########                    Molecular_Weight:             342.441
##########                DOCK_Rotatable_Bonds:                   6
##########                       Formal_Charge:          -0.0100004
##########                     HBond_Acceptors:                   6
##########                        HBond_Donors:                   0
##########                         Heavy_Atoms:                  25
##########                          Grid_Score:          -32.717449
##########                     Grid_vdw_energy:          -32.171055
##########                      Grid_es_energy:           -0.546395
##########           Internal_energy_repulsive:           12.405263

@<TRIPOS>MOLECULE
ZINC001064463188
 51 54 1 0 0
SMALL
USER_CHARGES


@<TRIPOS>ATOM
      1 C1        -11.0684    0.3106   62.5661 C.3     1  ZINC001064463188    0.0400
      2 O2         -9.9987   -0.6158   62.3679 O.3     1  ZINC001064463188   -0.3000
      3 C3        -10.1701   -1.5575   61.4085 C.ar    1  ZINC001064463188    0.3900
      4 C4         -9.1758   -2.5023   61.1599 C.ar    1  ZINC001064463188   -0.2800
      5 C5         -9.3932   -3.4445   60.1719 C.ar    1  ZINC001064463188    0.2000
      6 N6        -10.5314   -3.4224   59.4953 N.ar    1  ZINC001064463188   -0.5800
      7 C7        -11.4587   -2.5120   59.7538 C.ar    1  ZINC001064463188    0.5300
      8 N8        -12.6356   -2.5217   59.0256 N.3     1  ZINC001064463188   -0.4500
      9 C9        -13.7900   -2.3006   59.8934 C.3     1  ZINC001064463188    0.0700
     10 C10       -14.9204   -3.2693   59.5259 C.3     1  ZINC001064463188   -0.1200
     11 C11       -15.4958   -2.9776   58.1531 C.3     1  ZINC001064463188    0.1400
     12 H12       -16.2539   -3.7197   57.9029 H       1  ZINC001064463188    0.0900
     13 C13       -16.0974   -1.5728   58.0805 C.3     1  ZINC001064463188   -0.1300
     14 C14       -14.9244   -0.6807   57.6372 C.3     1  ZINC001064463188   -0.1300
     15 C15       -13.8713   -1.6468   57.0837 C.3     1  ZINC001064463188    0.1200
     16 H16       -13.6586   -1.4018   56.0431 H       1  ZINC001064463188    0.0900
     17 C17       -12.5772   -1.5454   57.9058 C.3     1  ZINC001064463188    0.0600
     18 N18       -14.3750   -3.0438   57.1697 N.am    1  ZINC001064463188   -0.6000
     19 C19       -13.9142   -4.1219   56.5050 C.2     1  ZINC001064463188    0.5800
     20 O20       -14.4289   -5.2098   56.6799 O.2     1  ZINC001064463188   -0.5400
     21 C21       -12.7887   -3.9828   55.5681 C.2     1  ZINC001064463188   -0.2200
     22 C22       -13.0173   -3.6694   54.2960 C.2     1  ZINC001064463188    0.0000
     23 C23       -14.4294   -3.4567   53.8145 C.3     1  ZINC001064463188   -0.1300
     24 C24       -11.8644   -3.5268   53.3362 C.3     1  ZINC001064463188   -0.1200
     25 C25       -12.0403   -2.5661   52.1585 C.3     1  ZINC001064463188   -0.1900
     26 C26       -11.1188   -2.1909   53.3209 C.3     1  ZINC001064463188   -0.1600
     27 N27       -11.2897   -1.5966   60.6962 N.ar    1  ZINC001064463188   -0.5900
     28 H28       -11.9716   -0.2317   62.8461 H       1  ZINC001064463188    0.0600
     29 H29       -10.8025    1.0082   63.3604 H       1  ZINC001064463188    0.1000
     30 H30       -11.2473    0.8621   61.6430 H       1  ZINC001064463188    0.0600
     31 H31        -8.2561   -2.4981   61.7260 H       1  ZINC001064463188    0.1500
     32 H32        -8.6429   -4.1901   59.9540 H       1  ZINC001064463188    0.1800
     33 H33       -13.4983   -2.4628   60.9310 H       1  ZINC001064463188    0.0800
     34 H34       -14.1401   -1.2752   59.7748 H       1  ZINC001064463188    0.0600
     35 H35       -14.5324   -4.2878   59.5385 H       1  ZINC001064463188    0.0800
     36 H36       -15.7144   -3.1852   60.2680 H       1  ZINC001064463188    0.0800
     37 H37       -16.9009   -1.5396   57.3448 H       1  ZINC001064463188    0.0800
     38 H38       -16.4628   -1.2634   59.0598 H       1  ZINC001064463188    0.0900
     39 H39       -15.2484    0.0113   56.8598 H       1  ZINC001064463188    0.0800
     40 H40       -14.5234   -0.1322   58.4895 H       1  ZINC001064463188    0.0800
     41 H41       -12.4859   -0.5418   58.3210 H       1  ZINC001064463188    0.0700
     42 H42       -11.7206   -1.7571   57.2659 H       1  ZINC001064463188    0.0900
     43 H43       -11.7768   -4.1352   55.9133 H       1  ZINC001064463188    0.1200
     44 H44       -14.6990   -2.4071   53.9316 H       1  ZINC001064463188    0.0800
     45 H45       -14.5004   -3.7350   52.7630 H       1  ZINC001064463188    0.0800
     46 H46       -15.1101   -4.0743   54.4006 H       1  ZINC001064463188    0.0700
     47 H47       -11.2803   -4.4312   53.1655 H       1  ZINC001064463188    0.1400
     48 H48       -11.5719   -2.8384   51.2126 H       1  ZINC001064463188    0.1000
     49 H49       -12.9898   -2.0371   52.0780 H       1  ZINC001064463188    0.1000
     50 H50       -11.4623   -1.4150   54.0050 H       1  ZINC001064463188    0.0900
     51 H51       -10.0444   -2.2162   53.1397 H       1  ZINC001064463188    0.1000
@<TRIPOS>BOND
     1     1     2    1
     2     1    28    1
     3     1    29    1
     4     1    30    1
     5     2     3    1
     6     3    27   ar
     7     3     4   ar
     8     4     5   ar
     9     4    31    1
    10     5     6   ar
    11     5    32    1
    12     6     7   ar
    13     7     8    1
    14     7    27   ar
    15     8    17    1
    16     8     9    1
    17     9    10    1
    18     9    33    1
    19     9    34    1
    20    10    11    1
    21    10    35    1
    22    10    36    1
    23    11    12    1
    24    11    18    1
    25    11    13    1
    26    13    14    1
    27    13    37    1
    28    13    38    1
    29    14    15    1
    30    14    39    1
    31    14    40    1
    32    15    16    1
    33    15    17    1
    34    15    18    1
    35    17    41    1
    36    17    42    1
    37    18    19   am
    38    19    20    2
    39    19    21    1
    40    21    22    2
    41    21    43    1
    42    22    23    1
    43    22    24    1
    44    23    44    1
    45    23    45    1
    46    23    46    1
    47    24    26    1
    48    24    25    1
    49    24    47    1
    50    25    26    1
    51    25    48    1
    52    25    49    1
    53    26    50    1
    54    26    51    1
@<TRIPOS>SUBSTRUCTURE
     1 ZINC001064463188        1 TEMP              0 ****  ****    0 ROOT


##########                                Name:    ZINC000566738344
##########                DOCK_Rotatable_Bonds:                   5
##########                         Heavy_Atoms:                  23
##########                    Molecular_Weight:             352.478
##########                DOCK_Rotatable_Bonds:                   5
##########                       Formal_Charge:           0.0100005
##########                     HBond_Acceptors:                   7
##########                        HBond_Donors:                   0
##########                         Heavy_Atoms:                  23
##########                          Grid_Score:          -32.716331
##########                     Grid_vdw_energy:          -32.492569
##########                      Grid_es_energy:           -0.223763
##########           Internal_energy_repulsive:           17.915773

@<TRIPOS>MOLECULE
ZINC000566738344
 43 44 1 0 0
SMALL
USER_CHARGES


@<TRIPOS>ATOM
      1 C1        -12.3508    1.4590   62.9563 C.3     1  ZINC000566738344   -0.1300
      2 C2        -11.0947    0.6315   62.8656 C.ar    1  ZINC000566738344   -0.0100
      3 C3        -11.0148   -0.4022   61.9610 C.ar    1  ZINC000566738344   -0.1000
      4 C4         -9.8544   -1.1678   61.8770 C.ar    1  ZINC000566738344   -0.0500
      5 S5         -9.7564   -2.4911   60.7177 S.3     1  ZINC000566738344   -0.0300
      6 C6        -10.4554   -1.7650   59.2094 C.3     1  ZINC000566738344   -0.1200
      7 H7        -11.4046   -1.2835   59.4441 H       1  ZINC000566738344    0.1200
      8 C8         -9.4831   -0.7274   58.6449 C.3     1  ZINC000566738344   -0.1300
      9 C9        -10.6815   -2.8496   58.1879 C.2     1  ZINC000566738344    0.5200
     10 O10       -10.1608   -3.9356   58.3311 O.2     1  ZINC000566738344   -0.5000
     11 N11       -11.4622   -2.6129   57.1151 N.am    1  ZINC000566738344   -0.6000
     12 C12       -12.0896   -1.3006   56.9411 C.3     1  ZINC000566738344    0.0600
     13 C13       -11.6834   -3.6678   56.1229 C.3     1  ZINC000566738344    0.1500
     14 H14       -11.0751   -4.5376   56.3712 H       1  ZINC000566738344    0.1300
     15 C15       -13.1706   -4.0629   56.1108 C.3     1  ZINC000566738344   -0.1300
     16 C16       -13.3913   -4.9200   54.8376 C.3     1  ZINC000566738344   -0.5900
     17 S17       -12.4326   -4.0062   53.5706 S.o2    1  ZINC000566738344    2.4000
     18 O18       -11.6953   -4.9296   52.7814 O.2     1  ZINC000566738344   -0.9300
     19 O19       -13.2754   -3.0513   52.9403 O.2     1  ZINC000566738344   -0.9300
     20 C20       -11.3007   -3.1504   54.7221 C.3     1  ZINC000566738344   -0.6200
     21 C21        -8.7715   -0.8895   62.7068 C.ar    1  ZINC000566738344   -0.1400
     22 C22        -8.8451    0.1431   63.6136 C.ar    1  ZINC000566738344   -0.0400
     23 C23       -10.0067    0.9169   63.6968 C.ar    1  ZINC000566738344   -0.0400
     24 C24       -10.0865    1.9921   64.6393 C.1     1  ZINC000566738344    0.2500
     25 N25       -10.1499    2.8451   65.3870 N.1     1  ZINC000566738344   -0.4100
     26 H26       -12.2808    2.3022   62.2690 H       1  ZINC000566738344    0.0800
     27 H27       -13.2108    0.8443   62.6907 H       1  ZINC000566738344    0.0800
     28 H28       -12.4692    1.8292   63.9746 H       1  ZINC000566738344    0.0700
     29 H29       -11.8530   -0.6204   61.3159 H       1  ZINC000566738344    0.1400
     30 H30        -8.5658   -1.2237   58.3278 H       1  ZINC000566738344    0.0800
     31 H31        -9.9401   -0.2282   57.7904 H       1  ZINC000566738344    0.0800
     32 H32        -9.2505    0.0089   59.4141 H       1  ZINC000566738344    0.0900
     33 H33       -11.4239   -0.6521   56.3715 H       1  ZINC000566738344    0.0700
     34 H34       -13.0311   -1.4163   56.4042 H       1  ZINC000566738344    0.0800
     35 H35       -12.2807   -0.8568   57.9182 H       1  ZINC000566738344    0.0800
     36 H36       -13.4090   -4.6469   56.9997 H       1  ZINC000566738344    0.1100
     37 H37       -13.7938   -3.1696   56.0721 H       1  ZINC000566738344    0.0900
     38 H38       -12.9927   -5.9252   54.9740 H       1  ZINC000566738344    0.1400
     39 H39       -14.4482   -4.9544   54.5728 H       1  ZINC000566738344    0.1400
     40 H40       -11.4450   -2.0717   54.6630 H       1  ZINC000566738344    0.1400
     41 H41       -10.2657   -3.4076   54.4965 H       1  ZINC000566738344    0.1500
     42 H42        -7.8729   -1.4848   62.6389 H       1  ZINC000566738344    0.1200
     43 H43        -8.0049    0.3582   64.2572 H       1  ZINC000566738344    0.1400
@<TRIPOS>BOND
     1     1     2    1
     2     1    26    1
     3     1    27    1
     4     1    28    1
     5     2    23   ar
     6     2     3   ar
     7     3     4   ar
     8     3    29    1
     9     4     5    1
    10     4    21   ar
    11     5     6    1
    12     6     7    1
    13     6     8    1
    14     6     9    1
    15     8    30    1
    16     8    31    1
    17     8    32    1
    18     9    10    2
    19     9    11   am
    20    11    12    1
    21    11    13    1
    22    12    33    1
    23    12    34    1
    24    12    35    1
    25    13    14    1
    26    13    20    1
    27    13    15    1
    28    15    16    1
    29    15    36    1
    30    15    37    1
    31    16    17    1
    32    16    38    1
    33    16    39    1
    34    17    18    2
    35    17    19    2
    36    17    20    1
    37    20    40    1
    38    20    41    1
    39    21    22   ar
    40    21    42    1
    41    22    23   ar
    42    22    43    1
    43    23    24    1
    44    24    25    3
@<TRIPOS>SUBSTRUCTURE
     1 ZINC000566738344        1 TEMP              0 ****  ****    0 ROOT


##########                                Name:    ZINC000186105981
##########                DOCK_Rotatable_Bonds:                   6
##########                         Heavy_Atoms:                  26
##########                    Molecular_Weight:             396.873
##########                DOCK_Rotatable_Bonds:                   6
##########                       Formal_Charge:          -0.0400003
##########                     HBond_Acceptors:                   9
##########                        HBond_Donors:                   1
##########                         Heavy_Atoms:                  26
##########                          Grid_Score:          -32.716160
##########                     Grid_vdw_energy:          -31.706568
##########                      Grid_es_energy:           -1.009593
##########           Internal_energy_repulsive:           14.970008

@<TRIPOS>MOLECULE
ZINC000186105981
 44 46 1 0 0
SMALL
USER_CHARGES


@<TRIPOS>ATOM
      1 C1        -14.6402   -3.8846   54.8574 C.3     1  ZINC000186105981   -0.1400
      2 C2        -13.8179   -3.3555   56.0343 C.3     1  ZINC000186105981   -0.1100
      3 C3        -14.1187   -4.1885   57.2819 C.3     1  ZINC000186105981   -0.1600
      4 C4        -12.3280   -3.4556   55.7014 C.3     1  ZINC000186105981    0.1600
      5 H5        -12.0460   -4.5043   55.6086 H       1  ZINC000186105981    0.1200
      6 C6        -11.5231   -2.8144   56.8023 C.2     1  ZINC000186105981    0.4900
      7 O7        -10.4039   -3.2129   57.0462 O.2     1  ZINC000186105981   -0.4300
      8 N8        -12.0469   -1.7981   57.5159 N.am    1  ZINC000186105981   -0.6300
      9 C9        -11.3046   -1.2068   58.5311 C.2     1  ZINC000186105981    0.2400
     10 N10       -10.1057   -0.7106   58.4157 N.2     1  ZINC000186105981   -0.2600
     11 N11        -9.5770   -0.2087   59.4447 N.2     1  ZINC000186105981   -0.2000
     12 C12       -10.2691   -0.2229   60.5494 C.2     1  ZINC000186105981    0.0300
     13 C13        -9.8335    0.3119   61.8566 C.ar    1  ZINC000186105981   -0.0500
     14 C14        -9.1369   -0.5038   62.7521 C.ar    1  ZINC000186105981    0.1300
     15 F15        -8.8590   -1.7851   62.4259 F       1  ZINC000186105981   -0.1200
     16 C16        -8.7325    0.0039   63.9725 C.ar    1  ZINC000186105981   -0.1400
     17 C17        -9.0159    1.3155   64.3074 C.ar    1  ZINC000186105981   -0.0600
     18 C18        -9.7057    2.1283   63.4254 C.ar    1  ZINC000186105981   -0.1200
     19 C19       -10.1110    1.6369   62.2004 C.ar    1  ZINC000186105981    0.0200
     20 Cl20      -10.9757    2.6594   61.0957 Cl      1  ZINC000186105981   -0.0100
     21 S21       -11.8216   -0.9877   60.2041 S.3     1  ZINC000186105981    0.1200
     22 N22       -12.0628   -2.7649   54.4369 N.am    1  ZINC000186105981   -0.6100
     23 C23       -12.0140   -1.3059   54.2846 C.3     1  ZINC000186105981    0.1000
     24 C24       -11.2934   -1.0557   52.9412 C.3     1  ZINC000186105981   -0.1300
     25 C25       -11.5884   -2.3667   52.1762 C.3     1  ZINC000186105981   -0.1600
     26 C26       -11.8271   -3.3860   53.2683 C.2     1  ZINC000186105981    0.5200
     27 O27       -11.8149   -4.5884   53.1109 O.2     1  ZINC000186105981   -0.5000
     28 H28       -15.7016   -3.8133   55.0947 H       1  ZINC000186105981    0.0600
     29 H29       -14.4259   -3.2912   53.9686 H       1  ZINC000186105981    0.0600
     30 H30       -14.3787   -4.9261   54.6706 H       1  ZINC000186105981    0.0600
     31 H31       -14.0794   -2.3140   56.2211 H       1  ZINC000186105981    0.0900
     32 H32       -13.7714   -5.2104   57.1291 H       1  ZINC000186105981    0.0600
     33 H33       -13.6059   -3.7550   58.1406 H       1  ZINC000186105981    0.0600
     34 H34       -15.1932   -4.1937   57.4651 H       1  ZINC000186105981    0.0700
     35 H35       -12.9420   -1.4793   57.3208 H       1  ZINC000186105981    0.4200
     36 H36        -8.1943   -0.6250   64.6661 H       1  ZINC000186105981    0.1500
     37 H37        -8.6976    1.7070   65.2622 H       1  ZINC000186105981    0.1500
     38 H38        -9.9237    3.1514   63.6940 H       1  ZINC000186105981    0.1500
     39 H39       -13.0234   -0.8961   54.2533 H       1  ZINC000186105981    0.0700
     40 H40       -11.4502   -0.8599   55.1039 H       1  ZINC000186105981    0.0800
     41 H41       -11.7209   -0.1972   52.4232 H       1  ZINC000186105981    0.0900
     42 H42       -10.2219   -0.9246   53.0919 H       1  ZINC000186105981    0.0800
     43 H43       -12.4761   -2.2537   51.5538 H       1  ZINC000186105981    0.1100
     44 H44       -10.7301   -2.6557   51.5695 H       1  ZINC000186105981    0.1000
@<TRIPOS>BOND
     1     1     2    1
     2     1    28    1
     3     1    29    1
     4     1    30    1
     5     2     3    1
     6     2     4    1
     7     2    31    1
     8     3    32    1
     9     3    33    1
    10     3    34    1
    11     4     5    1
    12     4     6    1
    13     4    22    1
    14     6     7    2
    15     6     8   am
    16     8     9    1
    17     8    35    1
    18     9    21    1
    19     9    10    2
    20    10    11    1
    21    11    12    2
    22    12    13    1
    23    12    21    1
    24    13    19   ar
    25    13    14   ar
    26    14    15    1
    27    14    16   ar
    28    16    17   ar
    29    16    36    1
    30    17    18   ar
    31    17    37    1
    32    18    19   ar
    33    18    38    1
    34    19    20    1
    35    22    26   am
    36    22    23    1
    37    23    24    1
    38    23    39    1
    39    23    40    1
    40    24    25    1
    41    24    41    1
    42    24    42    1
    43    25    26    1
    44    25    43    1
    45    25    44    1
    46    26    27    2
@<TRIPOS>SUBSTRUCTURE
     1 ZINC000186105981        1 TEMP              0 ****  ****    0 ROOT


##########                                Name:    ZINC000742270208
##########                DOCK_Rotatable_Bonds:                   5
##########                         Heavy_Atoms:                  25
##########                    Molecular_Weight:             376.328
##########                DOCK_Rotatable_Bonds:                   5
##########                       Formal_Charge:                0.02
##########                     HBond_Acceptors:                   9
##########                        HBond_Donors:                   0
##########                         Heavy_Atoms:                  25
##########                          Grid_Score:          -32.710823
##########                     Grid_vdw_energy:          -32.120777
##########                      Grid_es_energy:           -0.590046
##########           Internal_energy_repulsive:           13.565352

@<TRIPOS>MOLECULE
ZINC000742270208
 37 38 1 0 0
SMALL
USER_CHARGES


@<TRIPOS>ATOM
      1 C1        -11.8939   -2.7116   52.8749 C.3     1  ZINC000742270208   -0.1400
      2 C2        -13.0039   -2.7273   53.9279 C.3     1  ZINC000742270208   -0.1400
      3 C3        -14.3511   -2.9717   53.2452 C.3     1  ZINC000742270208   -0.1400
      4 C4        -12.7375   -3.8279   54.9222 C.2     1  ZINC000742270208    0.4000
      5 O5        -13.2169   -4.9285   54.7512 O.2     1  ZINC000742270208   -0.4300
      6 C6        -11.8954   -3.5671   56.1005 C.ar    1  ZINC000742270208   -0.1000
      7 C7        -11.3921   -2.2835   56.3345 C.ar    1  ZINC000742270208   -0.0900
      8 C8        -10.6037   -2.0472   57.4409 C.ar    1  ZINC000742270208   -0.0200
      9 C9        -10.3099   -3.0763   58.3184 C.ar    1  ZINC000742270208   -0.6800
     10 S10        -9.3017   -2.7641   59.7293 S.o2    1  ZINC000742270208    2.6600
     11 O11        -8.5721   -3.9587   59.9735 O.2     1  ZINC000742270208   -0.9300
     12 O12        -8.6804   -1.5054   59.5079 O.2     1  ZINC000742270208   -0.9000
     13 O13       -10.2345   -2.5798   60.9178 O.3     1  ZINC000742270208   -0.6400
     14 C14       -10.1859   -1.3387   61.4721 C.ar    1  ZINC000742270208    0.0500
     15 C15        -9.2206   -1.0400   62.4237 C.ar    1  ZINC000742270208    0.0900
     16 F16        -8.3284   -1.9820   62.8004 F       1  ZINC000742270208   -0.0900
     17 C17        -9.1725    0.2250   62.9867 C.ar    1  ZINC000742270208    0.1100
     18 F18        -8.2331    0.5162   63.9131 F       1  ZINC000742270208   -0.1000
     19 C19       -10.0859    1.1908   62.6005 C.ar    1  ZINC000742270208   -0.1100
     20 C20       -11.0496    0.8946   61.6517 C.ar    1  ZINC000742270208    0.1200
     21 F21       -11.9400    1.8389   61.2763 F       1  ZINC000742270208   -0.1000
     22 C22       -11.0978   -0.3675   61.0825 C.ar    1  ZINC000742270208    0.1200
     23 F23       -12.0382   -0.6558   60.1564 F       1  ZINC000742270208   -0.0900
     24 C24       -10.8044   -4.3494   58.0938 C.ar    1  ZINC000742270208   -0.0300
     25 C25       -11.5992   -4.6004   56.9953 C.ar    1  ZINC000742270208   -0.0800
     26 H26       -12.0866   -1.9155   52.1557 H       1  ZINC000742270208    0.0700
     27 H27       -10.9342   -2.5375   53.3613 H       1  ZINC000742270208    0.0600
     28 H28       -11.8704   -3.6707   52.3575 H       1  ZINC000742270208    0.0600
     29 H29       -13.0274   -1.7681   54.4453 H       1  ZINC000742270208    0.1000
     30 H30       -14.3276   -3.9308   52.7279 H       1  ZINC000742270208    0.0700
     31 H31       -15.1418   -2.9830   53.9954 H       1  ZINC000742270208    0.0600
     32 H32       -14.5438   -2.1756   52.5261 H       1  ZINC000742270208    0.0700
     33 H33       -11.6198   -1.4796   55.6503 H       1  ZINC000742270208    0.1500
     34 H34       -10.2142   -1.0565   57.6230 H       1  ZINC000742270208    0.1500
     35 H35       -10.0468    2.1766   63.0400 H       1  ZINC000742270208    0.1900
     36 H36       -10.5707   -5.1473   58.7831 H       1  ZINC000742270208    0.1500
     37 H37       -11.9843   -5.5943   56.8214 H       1  ZINC000742270208    0.1500
@<TRIPOS>BOND
     1     1     2    1
     2     1    26    1
     3     1    27    1
     4     1    28    1
     5     2     3    1
     6     2     4    1
     7     2    29    1
     8     3    30    1
     9     3    31    1
    10     3    32    1
    11     4     5    2
    12     4     6    1
    13     6    25   ar
    14     6     7   ar
    15     7     8   ar
    16     7    33    1
    17     8     9   ar
    18     8    34    1
    19     9    10    1
    20     9    24   ar
    21    10    11    2
    22    10    12    2
    23    10    13    1
    24    13    14    1
    25    14    22   ar
    26    14    15   ar
    27    15    16    1
    28    15    17   ar
    29    17    18    1
    30    17    19   ar
    31    19    20   ar
    32    19    35    1
    33    20    21    1
    34    20    22   ar
    35    22    23    1
    36    24    25   ar
    37    24    36    1
    38    25    37    1
@<TRIPOS>SUBSTRUCTURE
     1 ZINC000742270208        1 TEMP              0 ****  ****    0 ROOT


##########                                Name:    ZINC001500042809
##########                DOCK_Rotatable_Bonds:                   9
##########                         Heavy_Atoms:                  24
##########                    Molecular_Weight:              346.45
##########                DOCK_Rotatable_Bonds:                   9
##########                       Formal_Charge:           0.0200001
##########                     HBond_Acceptors:                   6
##########                        HBond_Donors:                   2
##########                         Heavy_Atoms:                  24
##########                          Grid_Score:          -32.709747
##########                     Grid_vdw_energy:          -31.876318
##########                      Grid_es_energy:           -0.833430
##########           Internal_energy_repulsive:            9.706503

@<TRIPOS>MOLECULE
ZINC001500042809
 46 47 1 0 0
SMALL
USER_CHARGES


@<TRIPOS>ATOM
      1 C1         -9.0873   -1.9427   61.4826 C.3     1  ZINC001500042809    0.0200
      2 O2         -8.7190   -2.2840   60.1448 O.3     1  ZINC001500042809   -0.3100
      3 C3         -9.7037   -2.7469   59.3337 C.ar    1  ZINC001500042809    0.1600
      4 C4         -9.8266   -4.1120   59.1023 C.ar    1  ZINC001500042809   -0.1600
      5 C5        -10.8242   -4.5857   58.2796 C.ar    1  ZINC001500042809   -0.0200
      6 C6        -11.7137   -3.6920   57.6775 C.ar    1  ZINC001500042809   -0.1800
      7 C7        -12.7844   -4.1955   56.7950 C.2     1  ZINC001500042809    0.5600
      8 O8        -13.7432   -4.7726   57.2705 O.2     1  ZINC001500042809   -0.5300
      9 N9        -12.6993   -4.0156   55.4620 N.am    1  ZINC001500042809   -0.7300
     10 C10       -13.7628   -4.5138   54.5862 C.3     1  ZINC001500042809    0.1300
     11 C11       -14.2672   -3.3749   53.6978 C.3     1  ZINC001500042809   -0.1200
     12 H12       -15.0206   -3.7575   53.0092 H       1  ZINC001500042809    0.0900
     13 C13       -14.8837   -2.2809   54.5718 C.3     1  ZINC001500042809   -0.1500
     14 C14       -13.0973   -2.7928   52.9017 C.3     1  ZINC001500042809    0.1300
     15 N15       -13.5960   -2.2207   51.6486 N.am    1  ZINC001500042809   -0.7300
     16 C16       -13.0537   -1.0866   51.1627 C.2     1  ZINC001500042809    0.5900
     17 O17       -12.1508   -0.5369   51.7657 O.2     1  ZINC001500042809   -0.5200
     18 C18       -13.5515   -0.5152   49.9079 C.2     1  ZINC001500042809   -0.2800
     19 C19       -13.8683    0.7986   49.7059 C.2     1  ZINC001500042809   -0.0100
     20 C20       -13.7430    1.8548   50.7735 C.3     1  ZINC001500042809   -0.1100
     21 C21       -14.3122    1.0610   48.4315 C.2     1  ZINC001500042809   -0.1500
     22 C22       -14.3581    0.0005   47.6168 C.2     1  ZINC001500042809   -0.2200
     23 S23       -13.8294   -1.4091   48.4196 S.3     1  ZINC001500042809    0.1900
     24 C24       -11.5835   -2.3201   57.9085 C.ar    1  ZINC001500042809   -0.0400
     25 C25       -10.5863   -1.8548   58.7363 C.ar    1  ZINC001500042809   -0.2200
     26 H26        -9.8433   -1.1577   61.4623 H       1  ZINC001500042809    0.0600
     27 H27        -9.4904   -2.8225   61.9841 H       1  ZINC001500042809    0.0600
     28 H28        -8.2091   -1.5875   62.0218 H       1  ZINC001500042809    0.1000
     29 H29        -9.1387   -4.8021   59.5681 H       1  ZINC001500042809    0.1400
     30 H30       -10.9186   -5.6464   58.0999 H       1  ZINC001500042809    0.1400
     31 H31       -11.9339   -3.5562   55.0826 H       1  ZINC001500042809    0.4000
     32 H32       -14.5853   -4.8929   55.1929 H       1  ZINC001500042809    0.0800
     33 H33       -13.3723   -5.3167   53.9610 H       1  ZINC001500042809    0.0800
     34 H34       -15.7170   -2.6956   55.1390 H       1  ZINC001500042809    0.0600
     35 H35       -14.1302   -1.8984   55.2604 H       1  ZINC001500042809    0.0600
     36 H36       -15.2429   -1.4695   53.9389 H       1  ZINC001500042809    0.0600
     37 H37       -12.6105   -2.0139   53.4884 H       1  ZINC001500042809    0.0800
     38 H38       -12.3797   -3.5828   52.6803 H       1  ZINC001500042809    0.0800
     39 H39       -14.3164   -2.6583   51.1685 H       1  ZINC001500042809    0.4000
     40 H40       -12.7473    2.2963   50.7327 H       1  ZINC001500042809    0.0800
     41 H41       -14.4913    2.6298   50.6075 H       1  ZINC001500042809    0.0700
     42 H42       -13.8998    1.4020   51.7525 H       1  ZINC001500042809    0.0900
     43 H43       -14.6030    2.0507   48.1116 H       1  ZINC001500042809    0.1500
     44 H44       -14.6827    0.0333   46.5872 H       1  ZINC001500042809    0.1700
     45 H45       -12.2664   -1.6259   57.4414 H       1  ZINC001500042809    0.1300
     46 H46       -10.4870   -0.7948   58.9179 H       1  ZINC001500042809    0.1400
@<TRIPOS>BOND
     1     1     2    1
     2     1    26    1
     3     1    27    1
     4     1    28    1
     5     2     3    1
     6     3    25   ar
     7     3     4   ar
     8     4     5   ar
     9     4    29    1
    10     5     6   ar
    11     5    30    1
    12     6     7    1
    13     6    24   ar
    14     7     8    2
    15     7     9   am
    16     9    10    1
    17     9    31    1
    18    10    11    1
    19    10    32    1
    20    10    33    1
    21    11    12    1
    22    11    13    1
    23    11    14    1
    24    13    34    1
    25    13    35    1
    26    13    36    1
    27    14    15    1
    28    14    37    1
    29    14    38    1
    30    15    16   am
    31    15    39    1
    32    16    17    2
    33    16    18    1
    34    18    23    1
    35    18    19    2
    36    19    20    1
    37    19    21    1
    38    20    40    1
    39    20    41    1
    40    20    42    1
    41    21    22    2
    42    21    43    1
    43    22    23    1
    44    22    44    1
    45    24    25   ar
    46    24    45    1
    47    25    46    1
@<TRIPOS>SUBSTRUCTURE
     1 ZINC001500042809        1 TEMP              0 ****  ****    0 ROOT


##########                                Name:    ZINC000675319328
##########                DOCK_Rotatable_Bonds:                   7
##########                         Heavy_Atoms:                  26
##########                    Molecular_Weight:             363.475
##########                DOCK_Rotatable_Bonds:                   7
##########                       Formal_Charge:          -0.0200007
##########                     HBond_Acceptors:                   6
##########                        HBond_Donors:                   1
##########                         Heavy_Atoms:                  26
##########                          Grid_Score:          -32.707684
##########                     Grid_vdw_energy:          -31.818190
##########                      Grid_es_energy:           -0.889492
##########           Internal_energy_repulsive:           18.142700

@<TRIPOS>MOLECULE
ZINC000675319328
 56 58 1 0 0
SMALL
USER_CHARGES


@<TRIPOS>ATOM
      1 C1         -9.3396   -3.7983   60.1103 C.3     1  ZINC000675319328   -0.1600
      2 C2         -9.9363   -2.7031   59.2243 C.3     1  ZINC000675319328    0.1600
      3 H3         -9.4050   -2.6757   58.2729 H       1  ZINC000675319328    0.0900
      4 C4         -9.7991   -1.3495   59.9241 C.3     1  ZINC000675319328   -0.1200
      5 C5        -10.2966   -0.2415   58.9937 C.3     1  ZINC000675319328   -0.1200
      6 H6        -11.3484   -0.3872   58.7474 H       1  ZINC000675319328    0.0800
      7 C7        -10.0661    1.1575   59.6276 C.3     1  ZINC000675319328   -0.1500
      8 C8         -9.9296    2.0364   58.3589 C.3     1  ZINC000675319328    0.0500
      9 O9         -9.2332    1.2160   57.4074 O.3     1  ZINC000675319328   -0.3900
     10 C10        -9.4370   -0.1721   57.7133 C.3     1  ZINC000675319328    0.0500
     11 N11       -11.3533   -2.9872   58.9841 N.am    1  ZINC000675319328   -0.7400
     12 C12       -11.7101   -3.9031   58.0620 C.2     1  ZINC000675319328    0.7000
     13 O13       -10.8560   -4.4935   57.4294 O.2     1  ZINC000675319328   -0.5900
     14 N14       -13.0137   -4.1645   57.8411 N.am    1  ZINC000675319328   -0.6200
     15 C15       -14.0274   -3.4317   58.6247 C.3     1  ZINC000675319328    0.1300
     16 C16       -15.2118   -3.0015   57.7429 C.3     1  ZINC000675319328   -0.1300
     17 C17       -14.7003   -2.5321   56.3989 C.3     1  ZINC000675319328    0.0700
     18 N18       -14.6965   -3.6594   55.4681 N.3     1  ZINC000675319328   -0.5500
     19 C19       -15.0345   -3.2202   54.1077 C.3     1  ZINC000675319328    0.1000
     20 C20       -13.9864   -2.2553   53.6163 C.ar    1  ZINC000675319328   -0.0900
     21 C21       -14.1683   -0.8948   53.7818 C.ar    1  ZINC000675319328   -0.0900
     22 C22       -13.2078   -0.0090   53.3316 C.ar    1  ZINC000675319328   -0.1500
     23 C23       -12.0628   -0.4844   52.7152 C.ar    1  ZINC000675319328    0.1000
     24 F24       -11.1230    0.3806   52.2752 F       1  ZINC000675319328   -0.1400
     25 C25       -11.8815   -1.8472   52.5506 C.ar    1  ZINC000675319328   -0.1500
     26 C26       -12.8412   -2.7314   53.0059 C.ar    1  ZINC000675319328   -0.0700
     27 C27       -13.5358   -4.4679   55.4661 C.3     1  ZINC000675319328    0.0500
     28 C28       -13.3668   -5.1499   56.8393 C.3     1  ZINC000675319328    0.1100
     29 H29        -9.4373   -4.7626   59.6117 H       1  ZINC000675319328    0.0600
     30 H30        -8.2853   -3.5869   60.2890 H       1  ZINC000675319328    0.0700
     31 H31        -9.8709   -3.8257   61.0617 H       1  ZINC000675319328    0.0500
     32 H32       -10.3936   -1.3509   60.8377 H       1  ZINC000675319328    0.0700
     33 H33        -8.7525   -1.1732   60.1720 H       1  ZINC000675319328    0.0900
     34 H34       -10.9235    1.4633   60.2270 H       1  ZINC000675319328    0.0800
     35 H35        -9.1500    1.1751   60.2181 H       1  ZINC000675319328    0.0800
     36 H36       -10.9145    2.3053   57.9772 H       1  ZINC000675319328    0.0600
     37 H37        -9.3510    2.9332   58.5803 H       1  ZINC000675319328    0.0900
     38 H38        -8.4766   -0.6568   57.8891 H       1  ZINC000675319328    0.0700
     39 H39        -9.9535   -0.6609   56.8872 H       1  ZINC000675319328    0.0700
     40 H40       -12.0347   -2.5163   59.4888 H       1  ZINC000675319328    0.3900
     41 H41       -14.3935   -4.0749   59.4249 H       1  ZINC000675319328    0.0600
     42 H42       -13.5680   -2.5454   59.0625 H       1  ZINC000675319328    0.0900
     43 H43       -15.8839   -3.8477   57.6000 H       1  ZINC000675319328    0.0800
     44 H44       -15.7506   -2.1890   58.2301 H       1  ZINC000675319328    0.0800
     45 H45       -15.3506   -1.7456   56.0160 H       1  ZINC000675319328    0.0700
     46 H46       -13.6866   -2.1469   56.5090 H       1  ZINC000675319328    0.0400
     47 H47       -15.0712   -4.0850   53.4453 H       1  ZINC000675319328    0.0900
     48 H48       -16.0067   -2.7274   54.1160 H       1  ZINC000675319328    0.0400
     49 H49       -15.0615   -0.5242   54.2626 H       1  ZINC000675319328    0.1300
     50 H50       -13.3505    1.0538   53.4603 H       1  ZINC000675319328    0.1400
     51 H51       -10.9890   -2.2193   52.0696 H       1  ZINC000675319328    0.1400
     52 H52       -12.6998   -3.7944   52.8779 H       1  ZINC000675319328    0.1300
     53 H53       -13.6266   -5.2292   54.6914 H       1  ZINC000675319328    0.0900
     54 H54       -12.6633   -3.8476   55.2613 H       1  ZINC000675319328    0.0300
     55 H55       -12.5778   -5.8995   56.7773 H       1  ZINC000675319328    0.0700
     56 H56       -14.3025   -5.6317   57.1227 H       1  ZINC000675319328    0.0900
@<TRIPOS>BOND
     1     1     2    1
     2     1    29    1
     3     1    30    1
     4     1    31    1
     5     2     3    1
     6     2     4    1
     7     2    11    1
     8     4     5    1
     9     4    32    1
    10     4    33    1
    11     5     6    1
    12     5    10    1
    13     5     7    1
    14     7     8    1
    15     7    34    1
    16     7    35    1
    17     8     9    1
    18     8    36    1
    19     8    37    1
    20     9    10    1
    21    10    38    1
    22    10    39    1
    23    11    12   am
    24    11    40    1
    25    12    13    2
    26    12    14   am
    27    14    28    1
    28    14    15    1
    29    15    16    1
    30    15    41    1
    31    15    42    1
    32    16    17    1
    33    16    43    1
    34    16    44    1
    35    17    18    1
    36    17    45    1
    37    17    46    1
    38    18    19    1
    39    18    27    1
    40    19    20    1
    41    19    47    1
    42    19    48    1
    43    20    26   ar
    44    20    21   ar
    45    21    22   ar
    46    21    49    1
    47    22    23   ar
    48    22    50    1
    49    23    24    1
    50    23    25   ar
    51    25    26   ar
    52    25    51    1
    53    26    52    1
    54    27    28    1
    55    27    53    1
    56    27    54    1
    57    28    55    1
    58    28    56    1
@<TRIPOS>SUBSTRUCTURE
     1 ZINC000675319328        1 TEMP              0 ****  ****    0 ROOT


##########                                Name:    ZINC000186316242
##########                DOCK_Rotatable_Bonds:                   7
##########                         Heavy_Atoms:                  28
##########                    Molecular_Weight:             392.525
##########                DOCK_Rotatable_Bonds:                   7
##########                       Formal_Charge:         -0.00999981
##########                     HBond_Acceptors:                   6
##########                        HBond_Donors:                   0
##########                         Heavy_Atoms:                  28
##########                          Grid_Score:          -32.704929
##########                     Grid_vdw_energy:          -32.950310
##########                      Grid_es_energy:            0.245381
##########           Internal_energy_repulsive:           21.940084

@<TRIPOS>MOLECULE
ZINC000186316242
 52 55 1 0 0
SMALL
USER_CHARGES


@<TRIPOS>ATOM
      1 C1        -10.6557   -2.2892   51.9124 C.3     1  ZINC000186316242   -0.1500
      2 C2        -11.5917   -1.1794   52.3954 C.3     1  ZINC000186316242    0.1000
      3 N3        -11.6633   -1.2032   53.8584 N.am    1  ZINC000186316242   -0.5900
      4 C4        -11.0118   -0.2701   54.5803 C.2     1  ZINC000186316242    0.5900
      5 O5        -11.0712   -0.2899   55.7949 O.2     1  ZINC000186316242   -0.5000
      6 C6        -10.2276    0.7742   53.8980 C.2     1  ZINC000186316242    0.0100
      7 C7        -10.6670    2.0586   53.7750 C.2     1  ZINC000186316242   -0.2100
      8 S8         -9.4925    2.9699   52.9295 S.3     1  ZINC000186316242    0.2000
      9 C9         -8.4637    1.5493   52.7886 C.2     1  ZINC000186316242    0.0700
     10 C10        -7.1428    1.5149   52.1240 C.ar    1  ZINC000186316242    0.1900
     11 C11        -6.3209    2.6409   52.1596 C.ar    1  ZINC000186316242   -0.1500
     12 C12        -5.0873    2.5931   51.5334 C.ar    1  ZINC000186316242   -0.0700
     13 C13        -4.7153    1.4206   50.8915 C.ar    1  ZINC000186316242   -0.1600
     14 C14        -5.5801    0.3407   50.8950 C.ar    1  ZINC000186316242    0.1100
     15 N15        -6.7464    0.4101   51.5025 N.ar    1  ZINC000186316242   -0.4500
     16 N16        -9.0395    0.5377   53.3623 N.2     1  ZINC000186316242   -0.3900
     17 C17       -12.4431   -2.2415   54.5369 C.3     1  ZINC000186316242    0.1400
     18 H18       -12.7926   -2.9820   53.8174 H       1  ZINC000186316242    0.1000
     19 C19       -13.6413   -1.6112   55.2831 C.3     1  ZINC000186316242   -0.1300
     20 C20       -13.6992   -2.4284   56.5982 C.3     1  ZINC000186316242    0.0400
     21 N21       -12.2671   -2.6503   56.9237 N.3     1  ZINC000186316242   -0.4900
     22 C22       -12.1059   -3.7843   57.8434 C.3     1  ZINC000186316242    0.0800
     23 C23       -11.1174   -3.4204   58.9212 C.ar    1  ZINC000186316242   -0.0700
     24 C24       -11.4447   -2.4653   59.8653 C.ar    1  ZINC000186316242   -0.1000
     25 C25       -10.5380   -2.1315   60.8539 C.ar    1  ZINC000186316242   -0.1200
     26 C26        -9.3042   -2.7532   60.8987 C.ar    1  ZINC000186316242   -0.1200
     27 C27        -8.9773   -3.7091   59.9551 C.ar    1  ZINC000186316242   -0.1200
     28 C28        -9.8856   -4.0459   58.9690 C.ar    1  ZINC000186316242   -0.1100
     29 C29       -11.5956   -2.9174   55.6307 C.3     1  ZINC000186316242    0.0400
     30 H30       -10.6024   -2.2714   50.8238 H       1  ZINC000186316242    0.0700
     31 H31        -9.6604   -2.1312   52.3275 H       1  ZINC000186316242    0.0500
     32 H32       -11.0376   -3.2555   52.2418 H       1  ZINC000186316242    0.0400
     33 H33       -11.2099   -0.2131   52.0661 H       1  ZINC000186316242    0.1200
     34 H34       -12.5872   -1.3373   51.9803 H       1  ZINC000186316242    0.0700
     35 H35       -11.6052    2.4393   54.1508 H       1  ZINC000186316242    0.1900
     36 H36        -6.6424    3.5377   52.6684 H       1  ZINC000186316242    0.1400
     37 H37        -4.4293    3.4494   51.5439 H       1  ZINC000186316242    0.1400
     38 H38        -3.7595    1.3517   50.3934 H       1  ZINC000186316242    0.1400
     39 H39        -5.2933   -0.5730   50.3958 H       1  ZINC000186316242    0.1600
     40 H40       -13.4549   -0.5576   55.4915 H       1  ZINC000186316242    0.0900
     41 H41       -14.5607   -1.7355   54.7109 H       1  ZINC000186316242    0.0700
     42 H42       -14.1885   -1.8554   57.3859 H       1  ZINC000186316242    0.0800
     43 H43       -14.2091   -3.3784   56.4386 H       1  ZINC000186316242    0.0400
     44 H44       -13.0674   -4.0232   58.2978 H       1  ZINC000186316242    0.0400
     45 H45       -11.7396   -4.6503   57.2919 H       1  ZINC000186316242    0.0800
     46 H46       -12.4087   -1.9795   59.8303 H       1  ZINC000186316242    0.1200
     47 H47       -10.7935   -1.3848   61.5911 H       1  ZINC000186316242    0.1200
     48 H48        -8.5955   -2.4920   61.6707 H       1  ZINC000186316242    0.1200
     49 H49        -8.0132   -4.1947   59.9899 H       1  ZINC000186316242    0.1200
     50 H50        -9.6302   -4.7928   58.2318 H       1  ZINC000186316242    0.1200
     51 H51       -11.5451   -3.9917   55.4535 H       1  ZINC000186316242    0.0500
     52 H52       -10.5921   -2.4921   55.6385 H       1  ZINC000186316242    0.0800
@<TRIPOS>BOND
     1     1     2    1
     2     1    30    1
     3     1    31    1
     4     1    32    1
     5     2     3    1
     6     2    33    1
     7     2    34    1
     8     3     4   am
     9     3    17    1
    10     4     5    2
    11     4     6    1
    12     6    16    1
    13     6     7    2
    14     7     8    1
    15     7    35    1
    16     8     9    1
    17     9    10    1
    18     9    16    2
    19    10    15   ar
    20    10    11   ar
    21    11    12   ar
    22    11    36    1
    23    12    13   ar
    24    12    37    1
    25    13    14   ar
    26    13    38    1
    27    14    15   ar
    28    14    39    1
    29    17    18    1
    30    17    29    1
    31    17    19    1
    32    19    20    1
    33    19    40    1
    34    19    41    1
    35    20    21    1
    36    20    42    1
    37    20    43    1
    38    21    22    1
    39    21    29    1
    40    22    23    1
    41    22    44    1
    42    22    45    1
    43    23    28   ar
    44    23    24   ar
    45    24    25   ar
    46    24    46    1
    47    25    26   ar
    48    25    47    1
    49    26    27   ar
    50    26    48    1
    51    27    28   ar
    52    27    49    1
    53    28    50    1
    54    29    51    1
    55    29    52    1
@<TRIPOS>SUBSTRUCTURE
     1 ZINC000186316242        1 TEMP              0 ****  ****    0 ROOT


##########                                Name:    ZINC000191003171
##########                DOCK_Rotatable_Bonds:                   6
##########                         Heavy_Atoms:                  26
##########                    Molecular_Weight:             389.414
##########                DOCK_Rotatable_Bonds:                   6
##########                       Formal_Charge:          -0.0200002
##########                     HBond_Acceptors:                   8
##########                        HBond_Donors:                   1
##########                         Heavy_Atoms:                  26
##########                          Grid_Score:          -32.677429
##########                     Grid_vdw_energy:          -31.668016
##########                      Grid_es_energy:           -1.009413
##########           Internal_energy_repulsive:           16.775454

@<TRIPOS>MOLECULE
ZINC000191003171
 45 46 1 0 0
SMALL
USER_CHARGES


@<TRIPOS>ATOM
      1 C1        -11.2069   -3.4877   52.7359 C.3     1  ZINC000191003171   -0.1200
      2 C2        -12.4498   -2.6526   52.5656 C.ar    1  ZINC000191003171   -0.0800
      3 C3        -12.6434   -1.9309   51.4030 C.ar    1  ZINC000191003171   -0.0700
      4 C4        -13.7837   -1.1647   51.2467 C.ar    1  ZINC000191003171   -0.1800
      5 C5        -13.9947   -0.3775   49.9792 C.3     1  ZINC000191003171    0.5100
      6 F6        -13.4462   -1.0770   48.8989 F       1  ZINC000191003171   -0.1800
      7 F7        -15.3652   -0.1927   49.7677 F       1  ZINC000191003171   -0.1800
      8 F8        -13.3685    0.8684   50.0943 F       1  ZINC000191003171   -0.1800
      9 C9        -14.7303   -1.1211   52.2529 C.ar    1  ZINC000191003171   -0.0800
     10 C10       -14.5367   -1.8434   53.4158 C.ar    1  ZINC000191003171   -0.1000
     11 C11       -13.3989   -2.6128   53.5702 C.ar    1  ZINC000191003171   -0.0500
     12 C12       -13.1879   -3.4001   54.8378 C.3     1  ZINC000191003171    0.0900
     13 N13       -14.2996   -3.1450   55.7634 N.3     1  ZINC000191003171   -0.6800
     14 C14       -14.1502   -3.9314   56.9952 C.3     1  ZINC000191003171    0.1200
     15 H15       -14.1783   -4.9939   56.7536 H       1  ZINC000191003171    0.0600
     16 C16       -15.2929   -3.5965   57.9559 C.3     1  ZINC000191003171   -0.1400
     17 C17       -12.8326   -3.5991   57.6466 C.ar    1  ZINC000191003171   -0.0100
     18 C18       -11.8767   -4.5836   57.8137 C.ar    1  ZINC000191003171   -0.1300
     19 C19       -10.6673   -4.2801   58.4111 C.ar    1  ZINC000191003171    0.0100
     20 C20       -10.4129   -2.9922   58.8421 C.ar    1  ZINC000191003171   -0.7000
     21 S21        -8.8715   -2.6059   59.6035 S.o2    1  ZINC000191003171    2.5000
     22 C22        -9.2851   -2.3291   61.3479 C.3     1  ZINC000191003171   -0.6500
     23 O23        -8.1010   -3.7907   59.4556 O.2     1  ZINC000191003171   -0.9300
     24 O24        -8.4710   -1.3899   58.9869 O.2     1  ZINC000191003171   -0.9300
     25 C25       -11.3695   -2.0050   58.6748 C.ar    1  ZINC000191003171    0.1900
     26 F26       -11.1218   -0.7453   59.0957 F       1  ZINC000191003171   -0.1200
     27 C27       -12.5780   -2.3088   58.0717 C.ar    1  ZINC000191003171   -0.1700
     28 H28       -11.3889   -4.4921   52.3538 H       1  ZINC000191003171    0.0800
     29 H29       -10.3847   -3.0324   52.1838 H       1  ZINC000191003171    0.0800
     30 H30       -10.9481   -3.5427   53.7933 H       1  ZINC000191003171    0.0600
     31 H31       -11.9040   -1.9652   50.6166 H       1  ZINC000191003171    0.1400
     32 H32       -15.6209   -0.5227   52.1310 H       1  ZINC000191003171    0.1400
     33 H33       -15.2762   -1.8092   54.2022 H       1  ZINC000191003171    0.1400
     34 H34       -13.1476   -4.4635   54.6026 H       1  ZINC000191003171    0.0900
     35 H35       -12.2505   -3.0952   55.3031 H       1  ZINC000191003171    0.0500
     36 H36       -14.3793   -2.1606   55.9703 H       1  ZINC000191003171    0.3500
     37 H37       -15.1820   -4.1800   58.8699 H       1  ZINC000191003171    0.0600
     38 H38       -15.2647   -2.5339   58.1975 H       1  ZINC000191003171    0.0700
     39 H39       -16.2459   -3.8368   57.4847 H       1  ZINC000191003171    0.0600
     40 H40       -12.0749   -5.5906   57.4775 H       1  ZINC000191003171    0.1500
     41 H41        -9.9213   -5.0502   58.5415 H       1  ZINC000191003171    0.1600
     42 H42        -9.7291   -3.2334   61.7639 H       1  ZINC000191003171    0.1300
     43 H43        -8.3792   -2.0815   61.9012 H       1  ZINC000191003171    0.1400
     44 H44        -9.9954   -1.5061   61.4267 H       1  ZINC000191003171    0.1300
     45 H45       -13.3246   -1.5396   57.9403 H       1  ZINC000191003171    0.1500
@<TRIPOS>BOND
     1     1     2    1
     2     1    28    1
     3     1    29    1
     4     1    30    1
     5     2    11   ar
     6     2     3   ar
     7     3     4   ar
     8     3    31    1
     9     4     5    1
    10     4     9   ar
    11     5     6    1
    12     5     7    1
    13     5     8    1
    14     9    10   ar
    15     9    32    1
    16    10    11   ar
    17    10    33    1
    18    11    12    1
    19    12    13    1
    20    12    34    1
    21    12    35    1
    22    13    14    1
    23    13    36    1
    24    14    15    1
    25    14    16    1
    26    14    17    1
    27    16    37    1
    28    16    38    1
    29    16    39    1
    30    17    27   ar
    31    17    18   ar
    32    18    19   ar
    33    18    40    1
    34    19    20   ar
    35    19    41    1
    36    20    21    1
    37    20    25   ar
    38    21    22    1
    39    21    23    2
    40    21    24    2
    41    22    42    1
    42    22    43    1
    43    22    44    1
    44    25    26    1
    45    25    27   ar
    46    27    45    1
@<TRIPOS>SUBSTRUCTURE
     1 ZINC000191003171        1 TEMP              0 ****  ****    0 ROOT


##########                                Name:    ZINC000174621331
##########                DOCK_Rotatable_Bonds:                   8
##########                         Heavy_Atoms:                  25
##########                    Molecular_Weight:             366.438
##########                DOCK_Rotatable_Bonds:                   8
##########                       Formal_Charge:        -5.96046e-08
##########                     HBond_Acceptors:                   8
##########                        HBond_Donors:                   3
##########                         Heavy_Atoms:                  25
##########                          Grid_Score:          -32.656406
##########                     Grid_vdw_energy:          -32.442757
##########                      Grid_es_energy:           -0.213650
##########           Internal_energy_repulsive:           12.959317

@<TRIPOS>MOLECULE
ZINC000174621331
 47 48 1 0 0
SMALL
USER_CHARGES


@<TRIPOS>ATOM
      1 C1         -8.7889   -3.9125   59.8131 C.3     1  ZINC000174621331    0.0300
      2 O2         -9.7181   -3.2180   60.6476 O.3     1  ZINC000174621331   -0.3800
      3 C3         -9.4096   -1.8354   60.8359 C.3     1  ZINC000174621331    0.0500
      4 C4        -10.4669   -0.9773   60.1383 C.3     1  ZINC000174621331    0.2400
      5 H5        -10.2293    0.0772   60.2784 H       1  ZINC000174621331    0.1300
      6 N6        -10.4819   -1.2887   58.7068 N.am    1  ZINC000174621331   -0.7200
      7 C7        -10.8813   -0.3569   57.8188 C.2     1  ZINC000174621331    0.5600
      8 O8        -11.2306    0.7412   58.2056 O.2     1  ZINC000174621331   -0.5300
      9 C9        -10.8948   -0.6704   56.3740 C.ar    1  ZINC000174621331   -0.1600
     10 C10       -10.2685    0.1841   55.4656 C.ar    1  ZINC000174621331   -0.0200
     11 C11       -10.2844   -0.1145   54.1186 C.ar    1  ZINC000174621331   -0.1100
     12 C12        -9.6087    0.8070   53.1362 C.3     1  ZINC000174621331   -0.1200
     13 C13       -10.9187   -1.2583   53.6680 C.ar    1  ZINC000174621331    0.0400
     14 C14       -10.9315   -1.5785   52.1954 C.3     1  ZINC000174621331   -0.1600
     15 C15       -11.5412   -2.1101   54.5636 C.ar    1  ZINC000174621331   -0.6800
     16 S16       -12.3458   -3.5647   53.9791 S.o2    1  ZINC000174621331    2.7000
     17 N17       -12.8316   -4.4241   55.3087 N.am    1  ZINC000174621331   -1.2500
     18 O18       -13.5311   -3.1325   53.3255 O.2     1  ZINC000174621331   -0.9500
     19 O19       -11.3464   -4.3464   53.3392 O.2     1  ZINC000174621331   -0.9600
     20 C20       -11.5289   -1.8255   55.9132 C.ar    1  ZINC000174621331    0.0400
     21 C21       -11.8216   -1.2699   60.7301 C.2     1  ZINC000174621331   -0.0200
     22 C22       -12.7903   -2.0036   60.1532 C.2     1  ZINC000174621331   -0.1900
     23 C23       -13.8823   -2.0189   61.0510 C.2     1  ZINC000174621331   -0.2100
     24 C24       -13.5157   -1.2936   62.1230 C.2     1  ZINC000174621331    0.0000
     25 C25       -14.3626   -1.0323   63.3418 C.3     1  ZINC000174621331   -0.0800
     26 O26       -12.2644   -0.8473   61.9256 O.3     1  ZINC000174621331   -0.1600
     27 H27        -8.7704   -3.4497   58.8264 H       1  ZINC000174621331    0.0400
     28 H28        -7.7944   -3.8623   60.2566 H       1  ZINC000174621331    0.0400
     29 H29        -9.0930   -4.9550   59.7199 H       1  ZINC000174621331    0.0900
     30 H30        -9.4014   -1.6069   61.9016 H       1  ZINC000174621331    0.0700
     31 H31        -8.4292   -1.6208   60.4107 H       1  ZINC000174621331    0.0700
     32 H32       -10.2043   -2.1654   58.3982 H       1  ZINC000174621331    0.4100
     33 H33        -9.7730    1.0774   55.8161 H       1  ZINC000174621331    0.1400
     34 H34        -8.5705    0.5014   53.0061 H       1  ZINC000174621331    0.0800
     35 H35       -10.1248    0.7576   52.1774 H       1  ZINC000174621331    0.0800
     36 H36        -9.6419    1.8288   53.5144 H       1  ZINC000174621331    0.0700
     37 H37       -10.0592   -2.1832   51.9475 H       1  ZINC000174621331    0.1100
     38 H38       -11.8385   -2.1318   51.9518 H       1  ZINC000174621331    0.0700
     39 H39       -10.9061   -0.6519   51.6220 H       1  ZINC000174621331    0.0900
     40 H40       -13.4463   -4.0265   55.9451 H       1  ZINC000174621331    0.4200
     41 H41       -12.5015   -5.3249   55.4511 H       1  ZINC000174621331    0.4200
     42 H42       -12.0148   -2.4913   56.6111 H       1  ZINC000174621331    0.1600
     43 H43       -12.7430   -2.4876   59.1889 H       1  ZINC000174621331    0.1500
     44 H44       -14.8293   -2.5169   60.9042 H       1  ZINC000174621331    0.1500
     45 H45       -14.1894   -1.8159   64.0794 H       1  ZINC000174621331    0.0800
     46 H46       -14.0959   -0.0658   63.7691 H       1  ZINC000174621331    0.0800
     47 H47       -15.4151   -1.0263   63.0584 H       1  ZINC000174621331    0.0900
@<TRIPOS>BOND
     1     1     2    1
     2     1    27    1
     3     1    28    1
     4     1    29    1
     5     2     3    1
     6     3     4    1
     7     3    30    1
     8     3    31    1
     9     4     5    1
    10     4     6    1
    11     4    21    1
    12     6     7   am
    13     6    32    1
    14     7     8    2
    15     7     9    1
    16     9    20   ar
    17     9    10   ar
    18    10    11   ar
    19    10    33    1
    20    11    12    1
    21    11    13   ar
    22    12    34    1
    23    12    35    1
    24    12    36    1
    25    13    14    1
    26    13    15   ar
    27    14    37    1
    28    14    38    1
    29    14    39    1
    30    15    16    1
    31    15    20   ar
    32    16    17   am
    33    16    18    2
    34    16    19    2
    35    17    40    1
    36    17    41    1
    37    20    42    1
    38    21    26    1
    39    21    22    2
    40    22    23    1
    41    22    43    1
    42    23    24    2
    43    23    44    1
    44    24    25    1
    45    24    26    1
    46    25    45    1
    47    25    46    1
    48    25    47    1
@<TRIPOS>SUBSTRUCTURE
     1 ZINC000174621331        1 TEMP              0 ****  ****    0 ROOT


##########                                Name:    ZINC000673213454
##########                DOCK_Rotatable_Bonds:                   7
##########                         Heavy_Atoms:                  26
##########                    Molecular_Weight:             360.453
##########                DOCK_Rotatable_Bonds:                   7
##########                       Formal_Charge:          -0.0100001
##########                     HBond_Acceptors:                   6
##########                        HBond_Donors:                   1
##########                         Heavy_Atoms:                  26
##########                          Grid_Score:          -32.637222
##########                     Grid_vdw_energy:          -32.474720
##########                      Grid_es_energy:           -0.162501
##########           Internal_energy_repulsive:           22.030930

@<TRIPOS>MOLECULE
ZINC000673213454
 54 56 1 0 0
SMALL
USER_CHARGES


@<TRIPOS>ATOM
      1 C1         -9.4643   -3.4829   60.3177 C.3     1  ZINC000673213454   -0.1700
      2 C2         -9.6715   -2.9151   58.9121 C.3     1  ZINC000673213454    0.1400
      3 H3         -8.9529   -3.3667   58.2283 H       1  ZINC000673213454    0.0900
      4 C4         -9.4668   -1.3992   58.9391 C.3     1  ZINC000673213454   -0.1200
      5 C5        -10.4958   -0.7622   59.8752 C.3     1  ZINC000673213454   -0.1300
      6 H6        -11.3801   -1.3942   59.9551 H       1  ZINC000673213454    0.0800
      7 C7        -10.8827    0.6506   59.3742 C.3     1  ZINC000673213454   -0.1500
      8 C8        -10.9568    1.4551   60.6969 C.3     1  ZINC000673213454    0.0500
      9 O9         -9.8792    0.9064   61.4858 O.3     1  ZINC000673213454   -0.3800
     10 C10        -9.8803   -0.5174   61.2666 C.3     1  ZINC000673213454    0.0500
     11 N11       -11.0320   -3.2163   58.4596 N.am    1  ZINC000673213454   -0.6900
     12 C12       -11.2562   -4.2754   57.6567 C.2     1  ZINC000673213454    0.5100
     13 O13       -10.3314   -4.9805   57.3100 O.2     1  ZINC000673213454   -0.5100
     14 C14       -12.6437   -4.5815   57.1936 C.2     1  ZINC000673213454    0.5000
     15 O15       -13.4303   -5.1174   57.9465 O.2     1  ZINC000673213454   -0.5200
     16 N16       -13.0215   -4.2623   55.9399 N.am    1  ZINC000673213454   -0.5800
     17 C17       -14.3975   -4.5769   55.5115 C.3     1  ZINC000673213454    0.1100
     18 C18       -14.9959   -3.4254   54.6902 C.3     1  ZINC000673213454   -0.1700
     19 C19       -14.5903   -2.1002   55.3033 C.3     1  ZINC000673213454    0.0800
     20 O20       -13.3836   -1.6638   54.6915 O.3     1  ZINC000673213454   -0.3800
     21 C21       -12.1729   -2.0846   55.2033 C.3     1  ZINC000673213454    0.1500
     22 H22       -12.1085   -1.8105   56.2563 H       1  ZINC000673213454    0.0600
     23 C23       -11.0503   -1.4262   54.4433 C.ar    1  ZINC000673213454   -0.0800
     24 C24       -10.7413   -1.8480   53.1637 C.ar    1  ZINC000673213454   -0.0900
     25 C25        -9.7116   -1.2440   52.4667 C.ar    1  ZINC000673213454   -0.1300
     26 C26        -8.9912   -0.2181   53.0491 C.ar    1  ZINC000673213454   -0.1200
     27 C27        -9.3008    0.2043   54.3284 C.ar    1  ZINC000673213454   -0.1300
     28 C28       -10.3333   -0.3968   55.0238 C.ar    1  ZINC000673213454   -0.0900
     29 C29       -12.0610   -3.6168   55.0643 C.3     1  ZINC000673213454    0.0700
     30 H30       -10.1830   -3.0313   61.0016 H       1  ZINC000673213454    0.0600
     31 H31        -9.6101   -4.5629   60.2985 H       1  ZINC000673213454    0.0600
     32 H32        -8.4521   -3.2588   60.6545 H       1  ZINC000673213454    0.0700
     33 H33        -8.4620   -1.1746   59.2969 H       1  ZINC000673213454    0.0800
     34 H34        -9.5926   -0.9975   57.9336 H       1  ZINC000673213454    0.0900
     35 H35       -10.1133    1.0541   58.7159 H       1  ZINC000673213454    0.0800
     36 H36       -11.8510    0.6342   58.8741 H       1  ZINC000673213454    0.0800
     37 H37       -10.7938    2.5166   60.5101 H       1  ZINC000673213454    0.0900
     38 H38       -11.9149    1.2941   61.1910 H       1  ZINC000673213454    0.0600
     39 H39       -10.4798   -1.0098   62.0322 H       1  ZINC000673213454    0.0600
     40 H40        -8.8589   -0.8970   61.2919 H       1  ZINC000673213454    0.0900
     41 H41       -11.7714   -2.6534   58.7376 H       1  ZINC000673213454    0.4100
     42 H42       -14.3850   -5.4814   54.9035 H       1  ZINC000673213454    0.0800
     43 H43       -15.0164   -4.7475   56.3925 H       1  ZINC000673213454    0.0900
     44 H44       -14.6266   -3.4798   53.6662 H       1  ZINC000673213454    0.0800
     45 H45       -16.0828   -3.5071   54.6888 H       1  ZINC000673213454    0.0900
     46 H46       -15.3745   -1.3629   55.1316 H       1  ZINC000673213454    0.1000
     47 H47       -14.4322   -2.2262   56.3744 H       1  ZINC000673213454    0.0500
     48 H48       -11.3041   -2.6496   52.7087 H       1  ZINC000673213454    0.1300
     49 H49        -9.4697   -1.5741   51.4671 H       1  ZINC000673213454    0.1200
     50 H50        -8.1863    0.2533   52.5048 H       1  ZINC000673213454    0.1200
     51 H51        -8.7378    1.0057   54.7836 H       1  ZINC000673213454    0.1200
     52 H52       -10.5752   -0.0667   56.0233 H       1  ZINC000673213454    0.1300
     53 H53       -11.0543   -3.9336   55.3370 H       1  ZINC000673213454    0.1200
     54 H54       -12.2648   -3.9037   54.0326 H       1  ZINC000673213454    0.0800
@<TRIPOS>BOND
     1     1     2    1
     2     1    30    1
     3     1    31    1
     4     1    32    1
     5     2     3    1
     6     2     4    1
     7     2    11    1
     8     4     5    1
     9     4    33    1
    10     4    34    1
    11     5     6    1
    12     5    10    1
    13     5     7    1
    14     7     8    1
    15     7    35    1
    16     7    36    1
    17     8     9    1
    18     8    37    1
    19     8    38    1
    20     9    10    1
    21    10    39    1
    22    10    40    1
    23    11    12   am
    24    11    41    1
    25    12    13    2
    26    12    14    1
    27    14    15    2
    28    14    16   am
    29    16    29    1
    30    16    17    1
    31    17    18    1
    32    17    42    1
    33    17    43    1
    34    18    19    1
    35    18    44    1
    36    18    45    1
    37    19    20    1
    38    19    46    1
    39    19    47    1
    40    20    21    1
    41    21    22    1
    42    21    23    1
    43    21    29    1
    44    23    28   ar
    45    23    24   ar
    46    24    25   ar
    47    24    48    1
    48    25    26   ar
    49    25    49    1
    50    26    27   ar
    51    26    50    1
    52    27    28   ar
    53    27    51    1
    54    28    52    1
    55    29    53    1
    56    29    54    1
@<TRIPOS>SUBSTRUCTURE
     1 ZINC000673213454        1 TEMP              0 ****  ****    0 ROOT


##########                                Name:    ZINC000652498551
##########                DOCK_Rotatable_Bonds:                   6
##########                         Heavy_Atoms:                  23
##########                    Molecular_Weight:             388.277
##########                DOCK_Rotatable_Bonds:                   6
##########                       Formal_Charge:          -0.0400001
##########                     HBond_Acceptors:                   5
##########                        HBond_Donors:                   1
##########                         Heavy_Atoms:                  23
##########                          Grid_Score:          -32.637108
##########                     Grid_vdw_energy:          -32.338470
##########                      Grid_es_energy:           -0.298637
##########           Internal_energy_repulsive:           17.180063

@<TRIPOS>MOLECULE
ZINC000652498551
 46 47 1 0 0
SMALL
USER_CHARGES


@<TRIPOS>ATOM
      1 C1        -10.5924   -1.5355   53.3906 C.3     1  ZINC000652498551   -0.1300
      2 C2        -11.7460   -2.2818   54.0638 C.3     1  ZINC000652498551   -0.1300
      3 C3        -12.8460   -1.2872   54.4406 C.3     1  ZINC000652498551   -0.1300
      4 C4        -12.3024   -3.3096   53.1126 C.2     1  ZINC000652498551    0.5000
      5 O5        -11.6617   -4.3154   52.8588 O.co2   1  ZINC000652498551   -0.7000
      6 O6        -13.3933   -3.1355   52.5967 O.co2   1  ZINC000652498551   -0.6700
      7 C7        -11.2348   -2.9790   55.3261 C.3     1  ZINC000652498551   -0.0600
      8 H8        -10.3538   -3.5729   55.0823 H       1  ZINC000652498551    0.0700
      9 C9        -12.3293   -3.8931   55.8843 C.3     1  ZINC000652498551   -0.1500
     10 C10       -11.8362   -4.5254   57.1892 C.3     1  ZINC000652498551   -0.1400
     11 C11       -11.4487   -3.4181   58.1715 C.3     1  ZINC000652498551   -0.0100
     12 N12       -10.3808   -2.5954   57.5906 N.4     1  ZINC000652498551   -0.3800
     13 H13        -9.5944   -3.1829   57.3569 H       1  ZINC000652498551    0.4200
     14 C14        -9.9597   -1.5816   58.5667 C.3     1  ZINC000652498551    0.0000
     15 C15        -8.9998   -2.2138   59.5767 C.3     1  ZINC000652498551    0.0200
     16 O16        -9.7225   -2.5870   60.7516 O.3     1  ZINC000652498551   -0.3100
     17 C17       -10.0846   -1.5866   61.5971 C.ar    1  ZINC000652498551    0.1600
     18 C18       -11.4020   -1.1558   61.6389 C.ar    1  ZINC000652498551   -0.2300
     19 C19       -11.7685   -0.1367   62.5006 C.ar    1  ZINC000652498551    0.1500
     20 F20       -13.0517    0.2838   62.5421 F       1  ZINC000652498551   -0.1200
     21 C21       -10.8204    0.4517   63.3202 C.ar    1  ZINC000652498551   -0.1600
     22 C22        -9.5058    0.0228   63.2787 C.ar    1  ZINC000652498551   -0.0300
     23 Br23       -8.2134    0.8284   64.3996 Br      1  ZINC000652498551   -0.0100
     24 C24        -9.1375   -0.9987   62.4234 C.ar    1  ZINC000652498551   -0.1300
     25 C25       -10.8684   -1.9289   56.3770 C.3     1  ZINC000652498551   -0.0200
     26 H26       -10.1900   -0.7920   54.0787 H       1  ZINC000652498551    0.0400
     27 H27        -9.8088   -2.2440   53.1222 H       1  ZINC000652498551    0.0500
     28 H28       -10.9566   -1.0387   52.4913 H       1  ZINC000652498551    0.0600
     29 H29       -13.2102   -0.7905   53.5413 H       1  ZINC000652498551    0.0700
     30 H30       -13.6679   -1.8189   54.9200 H       1  ZINC000652498551    0.0400
     31 H31       -12.4435   -0.5437   55.1286 H       1  ZINC000652498551    0.0500
     32 H32       -13.2281   -3.3083   56.0795 H       1  ZINC000652498551    0.1300
     33 H33       -12.5531   -4.6773   55.1611 H       1  ZINC000652498551    0.0800
     34 H34       -12.6305   -5.1340   57.6214 H       1  ZINC000652498551    0.1000
     35 H35       -10.9675   -5.1513   56.9848 H       1  ZINC000652498551    0.0700
     36 H36       -12.3180   -2.7930   58.3753 H       1  ZINC000652498551    0.1300
     37 H37       -11.0974   -3.8647   59.1016 H       1  ZINC000652498551    0.1100
     38 H38        -9.4562   -0.7655   58.0488 H       1  ZINC000652498551    0.1400
     39 H39       -10.8345   -1.1952   59.0897 H       1  ZINC000652498551    0.1500
     40 H40        -8.5402   -3.0987   59.1364 H       1  ZINC000652498551    0.1100
     41 H41        -8.2243   -1.4946   59.8403 H       1  ZINC000652498551    0.0900
     42 H42       -12.1413   -1.6148   60.9994 H       1  ZINC000652498551    0.1500
     43 H43       -11.1074    1.2466   63.9926 H       1  ZINC000652498551    0.1500
     44 H44        -8.1111   -1.3331   62.3919 H       1  ZINC000652498551    0.1500
     45 H45       -10.0890   -1.2766   55.9833 H       1  ZINC000652498551    0.1100
     46 H46       -11.7502   -1.3355   56.6184 H       1  ZINC000652498551    0.1700
@<TRIPOS>BOND
     1     1     2    1
     2     1    26    1
     3     1    27    1
     4     1    28    1
     5     2     3    1
     6     2     4    1
     7     2     7    1
     8     3    29    1
     9     3    30    1
    10     3    31    1
    11     4     5   ar
    12     4     6   ar
    13     7     8    1
    14     7    25    1
    15     7     9    1
    16     9    10    1
    17     9    32    1
    18     9    33    1
    19    10    11    1
    20    10    34    1
    21    10    35    1
    22    11    12    1
    23    11    36    1
    24    11    37    1
    25    12    13    1
    26    12    14    1
    27    12    25    1
    28    14    15    1
    29    14    38    1
    30    14    39    1
    31    15    16    1
    32    15    40    1
    33    15    41    1
    34    16    17    1
    35    17    24   ar
    36    17    18   ar
    37    18    19   ar
    38    18    42    1
    39    19    20    1
    40    19    21   ar
    41    21    22   ar
    42    21    43    1
    43    22    23    1
    44    22    24   ar
    45    24    44    1
    46    25    45    1
    47    25    46    1
@<TRIPOS>SUBSTRUCTURE
     1 ZINC000652498551        1 TEMP              0 ****  ****    0 ROOT


##########                                Name:    ZINC000463741321
##########                DOCK_Rotatable_Bonds:                   7
##########                         Heavy_Atoms:                  26
##########                    Molecular_Weight:             354.467
##########                DOCK_Rotatable_Bonds:                   7
##########                       Formal_Charge:         -6.4075e-07
##########                     HBond_Acceptors:                   4
##########                        HBond_Donors:                   1
##########                         Heavy_Atoms:                  26
##########                          Grid_Score:          -32.632736
##########                     Grid_vdw_energy:          -32.441433
##########                      Grid_es_energy:           -0.191303
##########           Internal_energy_repulsive:           12.423609

@<TRIPOS>MOLECULE
ZINC000463741321
 53 55 1 0 0
SMALL
USER_CHARGES


@<TRIPOS>ATOM
      1 C1        -14.5622   -5.7513   57.1200 C.3     1  ZINC000463741321   -0.1500
      2 C2        -13.3289   -5.0115   56.5978 C.3     1  ZINC000463741321   -0.1100
      3 H3        -12.5717   -5.7352   56.2961 H       1  ZINC000463741321    0.1000
      4 C4        -13.7213   -4.1522   55.3943 C.3     1  ZINC000463741321   -0.0900
      5 C5        -12.5069   -3.3498   54.9228 C.3     1  ZINC000463741321   -0.0800
      6 C6        -12.7712   -2.8021   53.5440 C.ar    1  ZINC000463741321   -0.1200
      7 C7        -14.0571   -2.4609   53.1707 C.ar    1  ZINC000463741321   -0.0900
      8 C8        -14.3000   -1.9584   51.9056 C.ar    1  ZINC000463741321   -0.1300
      9 C9        -13.2570   -1.7972   51.0129 C.ar    1  ZINC000463741321   -0.1000
     10 C10       -11.9700   -2.1382   51.3840 C.ar    1  ZINC000463741321   -0.1500
     11 C11       -11.7247   -2.6352   52.6526 C.ar    1  ZINC000463741321    0.1000
     12 F12       -10.4671   -2.9689   53.0164 F       1  ZINC000463741321   -0.1400
     13 C13       -12.7745   -4.1287   57.6860 C.2     1  ZINC000463741321    0.5200
     14 O14       -13.5124   -3.3883   58.3012 O.2     1  ZINC000463741321   -0.5300
     15 N15       -11.4586   -4.1617   57.9757 N.am    1  ZINC000463741321   -0.7300
     16 C16       -10.9194   -3.3022   59.0325 C.3     1  ZINC000463741321    0.1500
     17 H17       -11.6370   -3.2372   59.8502 H       1  ZINC000463741321    0.1000
     18 C18        -9.6055   -3.8930   59.5513 C.3     1  ZINC000463741321   -0.1300
     19 C19        -9.0185   -2.9581   60.6124 C.3     1  ZINC000463741321   -0.1200
     20 C20        -8.8111   -1.5695   60.0034 C.3     1  ZINC000463741321    0.0600
     21 N21       -10.0969   -1.0476   59.5228 N.3     1  ZINC000463741321   -0.4800
     22 C22        -9.9679    0.2710   59.0804 C.ar    1  ZINC000463741321    0.1100
     23 C23       -10.6864    1.2862   59.6991 C.ar    1  ZINC000463741321   -0.1700
     24 C24       -10.5561    2.5889   59.2596 C.ar    1  ZINC000463741321   -0.0900
     25 C25        -9.7120    2.8832   58.2045 C.ar    1  ZINC000463741321   -0.1500
     26 C26        -8.9953    1.8750   57.5864 C.ar    1  ZINC000463741321   -0.0900
     27 C27        -9.1165    0.5709   58.0246 C.ar    1  ZINC000463741321   -0.1400
     28 C28       -10.6579   -1.9034   58.4695 C.3     1  ZINC000463741321    0.0500
     29 H29       -15.3193   -5.0276   57.4218 H       1  ZINC000463741321    0.0600
     30 H30       -14.9631   -6.3899   56.3330 H       1  ZINC000463741321    0.0700
     31 H31       -14.2826   -6.3635   57.9774 H       1  ZINC000463741321    0.0600
     32 H32       -14.0677   -4.7959   54.5857 H       1  ZINC000463741321    0.0700
     33 H33       -14.5199   -3.4680   55.6813 H       1  ZINC000463741321    0.0700
     34 H34       -12.3260   -2.5255   55.6126 H       1  ZINC000463741321    0.0800
     35 H35       -11.6316   -3.9986   54.8944 H       1  ZINC000463741321    0.0800
     36 H36       -14.8728   -2.5872   53.8670 H       1  ZINC000463741321    0.1300
     37 H37       -15.3054   -1.6921   51.6147 H       1  ZINC000463741321    0.1300
     38 H38       -13.4480   -1.4049   50.0249 H       1  ZINC000463741321    0.1300
     39 H39       -11.1554   -2.0127   50.6861 H       1  ZINC000463741321    0.1400
     40 H40       -10.8687   -4.7547   57.4846 H       1  ZINC000463741321    0.4000
     41 H41        -9.7952   -4.8714   59.9925 H       1  ZINC000463741321    0.0700
     42 H42        -8.9010   -3.9950   58.7258 H       1  ZINC000463741321    0.0600
     43 H43        -9.7060   -2.8870   61.4551 H       1  ZINC000463741321    0.0800
     44 H44        -8.0614   -3.3518   60.9549 H       1  ZINC000463741321    0.0800
     45 H45        -8.4066   -0.8977   60.7604 H       1  ZINC000463741321    0.0900
     46 H46        -8.1128   -1.6392   59.1694 H       1  ZINC000463741321    0.0500
     47 H47       -11.3463    1.0569   60.5227 H       1  ZINC000463741321    0.1200
     48 H48       -11.1144    3.3787   59.7401 H       1  ZINC000463741321    0.1200
     49 H49        -9.6125    3.9027   57.8623 H       1  ZINC000463741321    0.1200
     50 H50        -8.3369    2.1082   56.7626 H       1  ZINC000463741321    0.1200
     51 H51        -8.5563   -0.2160   57.5416 H       1  ZINC000463741321    0.1300
     52 H52        -9.9513   -1.9719   57.6424 H       1  ZINC000463741321    0.0500
     53 H53       -11.5941   -1.4737   58.1127 H       1  ZINC000463741321    0.0900
@<TRIPOS>BOND
     1     1     2    1
     2     1    29    1
     3     1    30    1
     4     1    31    1
     5     2     3    1
     6     2     4    1
     7     2    13    1
     8     4     5    1
     9     4    32    1
    10     4    33    1
    11     5     6    1
    12     5    34    1
    13     5    35    1
    14     6    11   ar
    15     6     7   ar
    16     7     8   ar
    17     7    36    1
    18     8     9   ar
    19     8    37    1
    20     9    10   ar
    21     9    38    1
    22    10    11   ar
    23    10    39    1
    24    11    12    1
    25    13    14    2
    26    13    15   am
    27    15    16    1
    28    15    40    1
    29    16    17    1
    30    16    28    1
    31    16    18    1
    32    18    19    1
    33    18    41    1
    34    18    42    1
    35    19    20    1
    36    19    43    1
    37    19    44    1
    38    20    21    1
    39    20    45    1
    40    20    46    1
    41    21    22    1
    42    21    28    1
    43    22    27   ar
    44    22    23   ar
    45    23    24   ar
    46    23    47    1
    47    24    25   ar
    48    24    48    1
    49    25    26   ar
    50    25    49    1
    51    26    27   ar
    52    26    50    1
    53    27    51    1
    54    28    52    1
    55    28    53    1
@<TRIPOS>SUBSTRUCTURE
     1 ZINC000463741321        1 TEMP              0 ****  ****    0 ROOT


##########                                Name:    ZINC001176298561
##########                DOCK_Rotatable_Bonds:                   6
##########                         Heavy_Atoms:                  23
##########                    Molecular_Weight:             337.781
##########                DOCK_Rotatable_Bonds:                   6
##########                       Formal_Charge:          -0.0100003
##########                     HBond_Acceptors:                   7
##########                        HBond_Donors:                   2
##########                         Heavy_Atoms:                  23
##########                          Grid_Score:          -32.632217
##########                     Grid_vdw_energy:          -30.501610
##########                      Grid_es_energy:           -2.130608
##########           Internal_energy_repulsive:           13.674177

@<TRIPOS>MOLECULE
ZINC001176298561
 40 41 1 0 0
SMALL
USER_CHARGES


@<TRIPOS>ATOM
      1 C1         -9.2051   -0.6526   52.5729 C.3     1  ZINC001176298561   -0.1700
      2 C2        -10.7150   -0.7617   52.3516 C.3     1  ZINC001176298561    0.1100
      3 N3        -11.3124   -1.5431   53.4373 N.am    1  ZINC001176298561   -0.6100
      4 C4        -11.9209   -0.8609   54.5821 C.3     1  ZINC001176298561    0.0900
      5 C5        -12.7054    0.3577   54.0915 C.3     1  ZINC001176298561   -0.1800
      6 C6        -11.3021   -2.8897   53.3830 C.2     1  ZINC001176298561    0.5600
      7 O7        -10.7974   -3.4558   52.4332 O.2     1  ZINC001176298561   -0.5300
      8 C8        -11.9050   -3.6785   54.4788 C.ar    1  ZINC001176298561   -0.0600
      9 C9        -13.1211   -4.3345   54.2819 C.ar    1  ZINC001176298561   -0.1900
     10 C10       -13.6829   -5.0714   55.3082 C.ar    1  ZINC001176298561    0.1400
     11 F11       -14.8598   -5.7061   55.1159 F       1  ZINC001176298561   -0.1300
     12 C12       -13.0423   -5.1610   56.5318 C.ar    1  ZINC001176298561   -0.1800
     13 C13       -11.8308   -4.5106   56.7360 C.ar    1  ZINC001176298561    0.2400
     14 N14       -11.1877   -4.6042   57.9724 N.pl3   1  ZINC001176298561   -0.6700
     15 C15       -10.6039   -3.4680   58.5456 C.2     1  ZINC001176298561    0.0400
     16 C16       -11.2075   -2.2457   58.4281 C.2     1  ZINC001176298561   -0.0300
     17 C17       -10.6015   -1.1233   59.0124 C.2     1  ZINC001176298561   -0.1300
     18 Cl18      -11.3504    0.4368   58.8753 Cl      1  ZINC001176298561   -0.0400
     19 C19        -9.4336   -1.2565   59.6830 C.2     1  ZINC001176298561    0.1400
     20 N20        -8.8322   -2.4715   59.8005 N.am    1  ZINC001176298561   -0.6000
     21 C21        -9.3881   -3.5710   59.2567 C.2     1  ZINC001176298561    0.5100
     22 O22        -8.8370   -4.6542   59.3707 O.2     1  ZINC001176298561   -0.5200
     23 C23       -11.2573   -3.7739   55.7103 C.ar    1  ZINC001176298561   -0.1300
     24 H24        -8.7606   -0.0711   51.7651 H       1  ZINC001176298561    0.0700
     25 H25        -9.0121   -0.1584   53.5250 H       1  ZINC001176298561    0.0600
     26 H26        -8.7667   -1.6505   52.5861 H       1  ZINC001176298561    0.0600
     27 H27       -11.1533    0.2363   52.3385 H       1  ZINC001176298561    0.0800
     28 H28       -10.9080   -1.2558   51.3994 H       1  ZINC001176298561    0.0900
     29 H29       -12.5962   -1.5450   55.0959 H       1  ZINC001176298561    0.0900
     30 H30       -11.1394   -0.5371   55.2696 H       1  ZINC001176298561    0.0800
     31 H31       -13.2266    0.1064   53.1677 H       1  ZINC001176298561    0.0700
     32 H32       -13.4312    0.6519   54.8497 H       1  ZINC001176298561    0.0700
     33 H33       -12.0174    1.1829   53.9076 H       1  ZINC001176298561    0.0600
     34 H34       -13.6234   -4.2661   53.3283 H       1  ZINC001176298561    0.1500
     35 H35       -13.4853   -5.7375   57.3305 H       1  ZINC001176298561    0.1300
     36 H36       -11.1456   -5.4563   58.4339 H       1  ZINC001176298561    0.4200
     37 H37       -12.1395   -2.1460   57.8917 H       1  ZINC001176298561    0.1500
     38 H38        -8.9732   -0.3878   60.1301 H       1  ZINC001176298561    0.1800
     39 H39        -7.9951   -2.5471   60.2848 H       1  ZINC001176298561    0.4300
     40 H40       -10.3161   -3.2682   55.8676 H       1  ZINC001176298561    0.1400
@<TRIPOS>BOND
     1     1     2    1
     2     1    24    1
     3     1    25    1
     4     1    26    1
     5     2     3    1
     6     2    27    1
     7     2    28    1
     8     3     4    1
     9     3     6   am
    10     4     5    1
    11     4    29    1
    12     4    30    1
    13     5    31    1
    14     5    32    1
    15     5    33    1
    16     6     7    2
    17     6     8    1
    18     8    23   ar
    19     8     9   ar
    20     9    10   ar
    21     9    34    1
    22    10    11    1
    23    10    12   ar
    24    12    13   ar
    25    12    35    1
    26    13    14    1
    27    13    23   ar
    28    14    15    1
    29    14    36    1
    30    15    21    1
    31    15    16    2
    32    16    17    1
    33    16    37    1
    34    17    18    1
    35    17    19    2
    36    19    20    1
    37    19    38    1
    38    20    21   am
    39    20    39    1
    40    21    22    2
    41    23    40    1
@<TRIPOS>SUBSTRUCTURE
     1 ZINC001176298561        1 TEMP              0 ****  ****    0 ROOT


##########                                Name:    ZINC001344051361
##########                DOCK_Rotatable_Bonds:                   8
##########                         Heavy_Atoms:                  28
##########                    Molecular_Weight:             379.456
##########                DOCK_Rotatable_Bonds:                   8
##########                       Formal_Charge:          -0.0100006
##########                     HBond_Acceptors:                   5
##########                        HBond_Donors:                   0
##########                         Heavy_Atoms:                  28
##########                          Grid_Score:          -32.631645
##########                     Grid_vdw_energy:          -32.285118
##########                      Grid_es_energy:           -0.346525
##########           Internal_energy_repulsive:           20.245531

@<TRIPOS>MOLECULE
ZINC001344051361
 53 56 1 0 0
SMALL
USER_CHARGES


@<TRIPOS>ATOM
      1 O1        -10.7224   -0.0924   59.1104 O.2     1  ZINC001344051361   -0.4800
      2 C2        -10.0703   -0.9873   58.6269 C.2     1  ZINC001344051361    0.4800
      3 O3         -9.4880   -0.8220   57.4289 O.3     1  ZINC001344051361   -0.3500
      4 C4         -8.9372    0.4899   57.1390 C.3     1  ZINC001344051361    0.0700
      5 C5         -9.7911    1.1770   56.0714 C.3     1  ZINC001344051361   -0.1000
      6 H6        -10.8393    1.1464   56.3686 H       1  ZINC001344051361    0.0900
      7 C7         -9.3454    2.6332   55.9202 C.3     1  ZINC001344051361   -0.1200
      8 C8        -10.2204    3.3305   54.8760 C.3     1  ZINC001344051361   -0.1300
      9 C9        -10.0512    2.6302   53.5241 C.3     1  ZINC001344051361    0.0800
     10 N10       -10.3382    1.1992   53.6935 N.am    1  ZINC001344051361   -0.6100
     11 C11       -11.2456    0.5834   52.9100 C.2     1  ZINC001344051361    0.5600
     12 O12       -11.8353    1.2124   52.0532 O.2     1  ZINC001344051361   -0.5300
     13 C13       -11.5236   -0.8573   53.0925 C.ar    1  ZINC001344051361   -0.1300
     14 C14       -10.8753   -1.8025   52.2960 C.ar    1  ZINC001344051361   -0.1000
     15 C15       -11.1389   -3.1453   52.4718 C.ar    1  ZINC001344051361   -0.1300
     16 C16       -12.0439   -3.5555   53.4346 C.ar    1  ZINC001344051361   -0.0900
     17 C17       -12.6903   -2.6236   54.2270 C.ar    1  ZINC001344051361   -0.1300
     18 C18       -12.4310   -1.2781   54.0658 C.ar    1  ZINC001344051361   -0.0600
     19 C19        -9.6176    0.4518   54.7332 C.3     1  ZINC001344051361    0.1200
     20 C20        -9.9053   -2.2868   59.3718 C.3     1  ZINC001344051361    0.0200
     21 O21       -10.0377   -3.4708   58.5826 O.3     1  ZINC001344051361   -0.2500
     22 C22       -11.2920   -3.8101   58.1848 C.ar    1  ZINC001344051361    0.1200
     23 C23       -12.3677   -2.9958   58.5082 C.ar    1  ZINC001344051361   -0.2000
     24 C24       -13.6418   -3.3427   58.1023 C.ar    1  ZINC001344051361   -0.0800
     25 C25       -13.8455   -4.5007   57.3747 C.ar    1  ZINC001344051361   -0.1500
     26 C26       -12.7752   -5.3141   57.0515 C.ar    1  ZINC001344051361   -0.0800
     27 C27       -11.4984   -4.9684   57.4497 C.ar    1  ZINC001344051361   -0.1400
     28 C28        -8.9034   -2.3163   60.5277 C.3     1  ZINC001344051361   -0.1700
     29 C29       -10.4057   -2.3414   60.8166 C.3     1  ZINC001344051361   -0.1100
     30 H30        -8.9369    1.0926   58.0472 H       1  ZINC001344051361    0.0800
     31 H31        -7.9159    0.3826   56.7738 H       1  ZINC001344051361    0.0800
     32 H32        -9.4451    3.1448   56.8775 H       1  ZINC001344051361    0.0700
     33 H33        -8.3041    2.6629   55.5996 H       1  ZINC001344051361    0.0700
     34 H34       -11.2648    3.2795   55.1838 H       1  ZINC001344051361    0.0700
     35 H35        -9.9177    4.3737   54.7857 H       1  ZINC001344051361    0.0800
     36 H36       -10.7452    3.0589   52.8011 H       1  ZINC001344051361    0.1100
     37 H37        -9.0277    2.7584   53.1717 H       1  ZINC001344051361    0.0700
     38 H38       -10.1693   -1.4835   51.5436 H       1  ZINC001344051361    0.1400
     39 H39       -10.6380   -3.8778   51.8562 H       1  ZINC001344051361    0.1300
     40 H40       -12.2470   -4.6078   53.5679 H       1  ZINC001344051361    0.1300
     41 H41       -13.3958   -2.9503   54.9765 H       1  ZINC001344051361    0.1300
     42 H42       -12.9360   -0.5517   54.6853 H       1  ZINC001344051361    0.1300
     43 H43        -8.5586    0.4021   54.4799 H       1  ZINC001344051361    0.0700
     44 H44       -10.0254   -0.5564   54.8075 H       1  ZINC001344051361    0.1000
     45 H45       -12.2091   -2.0916   59.0772 H       1  ZINC001344051361    0.1300
     46 H46       -14.4795   -2.7091   58.3539 H       1  ZINC001344051361    0.1300
     47 H47       -14.8424   -4.7704   57.0586 H       1  ZINC001344051361    0.1300
     48 H48       -12.9370   -6.2183   56.4834 H       1  ZINC001344051361    0.1300
     49 H49       -10.6626   -5.6042   57.1971 H       1  ZINC001344051361    0.1300
     50 H50        -8.3449   -3.2388   60.6864 H       1  ZINC001344051361    0.1200
     51 H51        -8.3636   -1.3957   60.7495 H       1  ZINC001344051361    0.1200
     52 H52       -10.8542   -1.4374   61.2284 H       1  ZINC001344051361    0.1200
     53 H53       -10.8355   -3.2805   61.1653 H       1  ZINC001344051361    0.1200
@<TRIPOS>BOND
     1     1     2    2
     2     2     3    1
     3     2    20    1
     4     3     4    1
     5     4     5    1
     6     4    30    1
     7     4    31    1
     8     5     6    1
     9     5    19    1
    10     5     7    1
    11     7     8    1
    12     7    32    1
    13     7    33    1
    14     8     9    1
    15     8    34    1
    16     8    35    1
    17     9    10    1
    18     9    36    1
    19     9    37    1
    20    10    11   am
    21    10    19    1
    22    11    12    2
    23    11    13    1
    24    13    18   ar
    25    13    14   ar
    26    14    15   ar
    27    14    38    1
    28    15    16   ar
    29    15    39    1
    30    16    17   ar
    31    16    40    1
    32    17    18   ar
    33    17    41    1
    34    18    42    1
    35    19    43    1
    36    19    44    1
    37    20    29    1
    38    20    21    1
    39    20    28    1
    40    21    22    1
    41    22    27   ar
    42    22    23   ar
    43    23    24   ar
    44    23    45    1
    45    24    25   ar
    46    24    46    1
    47    25    26   ar
    48    25    47    1
    49    26    27   ar
    50    26    48    1
    51    27    49    1
    52    28    29    1
    53    28    50    1
    54    28    51    1
    55    29    52    1
    56    29    53    1
@<TRIPOS>SUBSTRUCTURE
     1 ZINC001344051361        1 TEMP              0 ****  ****    0 ROOT


##########                                Name:    ZINC000549659617
##########                DOCK_Rotatable_Bonds:                   9
##########                         Heavy_Atoms:                  28
##########                    Molecular_Weight:              418.48
##########                DOCK_Rotatable_Bonds:                   9
##########                       Formal_Charge:          0.00999956
##########                     HBond_Acceptors:                   9
##########                        HBond_Donors:                   1
##########                         Heavy_Atoms:                  28
##########                          Grid_Score:          -32.611378
##########                     Grid_vdw_energy:          -32.995564
##########                      Grid_es_energy:            0.384185
##########           Internal_energy_repulsive:           22.523544

@<TRIPOS>MOLECULE
ZINC000549659617
 53 55 1 0 0
SMALL
USER_CHARGES


@<TRIPOS>ATOM
      1 C1         -9.2086   -1.9123   60.6579 C.3     1  ZINC000549659617   -0.1500
      2 C2        -10.4567   -2.0060   59.7779 C.3     1  ZINC000549659617   -0.1500
      3 C3        -10.1164   -2.7560   58.4885 C.3     1  ZINC000549659617    0.1100
      4 N4        -10.7979   -2.1191   57.3588 N.am    1  ZINC000549659617   -0.6100
      5 C5        -10.2881   -0.9993   56.8087 C.2     1  ZINC000549659617    0.7100
      6 O6         -9.2636   -0.5167   57.2510 O.2     1  ZINC000549659617   -0.5700
      7 N7        -10.9142   -0.4144   55.7682 N.am    1  ZINC000549659617   -0.7400
      8 C8        -10.3610    0.8038   55.1714 C.3     1  ZINC000549659617    0.2300
      9 H9         -9.7569    1.3290   55.9112 H       1  ZINC000549659617    0.1100
     10 C10        -9.5012    0.4381   53.9889 C.ar    1  ZINC000549659617   -0.0900
     11 C11        -9.7410   -0.7337   53.2963 C.ar    1  ZINC000549659617   -0.0800
     12 C12        -8.9523   -1.0692   52.2115 C.ar    1  ZINC000549659617   -0.1100
     13 C13        -7.9244   -0.2325   51.8193 C.ar    1  ZINC000549659617   -0.0700
     14 C14        -7.6852    0.9401   52.5116 C.ar    1  ZINC000549659617   -0.1800
     15 C15        -6.5642    1.8521   52.0842 C.3     1  ZINC000549659617    0.5100
     16 F16        -5.4827    1.0845   51.6386 F       1  ZINC000549659617   -0.1800
     17 F17        -7.0067    2.6807   51.0474 F       1  ZINC000549659617   -0.1700
     18 F18        -6.1625    2.6377   53.1699 F       1  ZINC000549659617   -0.1700
     19 C19        -8.4764    1.2776   53.5934 C.ar    1  ZINC000549659617   -0.0500
     20 C20       -11.5041    1.7102   54.7100 C.3     1  ZINC000549659617   -0.1700
     21 C21       -12.8836    1.0727   54.5329 C.3     1  ZINC000549659617   -0.1700
     22 C22       -12.6191    2.0079   55.7146 C.3     1  ZINC000549659617   -0.1800
     23 C23       -12.0333   -2.6996   56.8269 C.3     1  ZINC000549659617    0.1700
     24 H24       -12.5031   -2.0040   56.1316 H       1  ZINC000549659617    0.1100
     25 C25       -13.0000   -3.0273   57.9784 C.3     1  ZINC000549659617   -0.1400
     26 C26       -14.1238   -3.9335   57.4377 C.3     1  ZINC000549659617   -0.5900
     27 S27       -13.3718   -4.8415   56.0391 S.o2    1  ZINC000549659617    2.3900
     28 O28       -13.2432   -6.2141   56.3834 O.2     1  ZINC000549659617   -0.9300
     29 O29       -14.0255   -4.4728   54.8324 O.2     1  ZINC000549659617   -0.9400
     30 C30       -11.7249   -4.0395   56.1103 C.3     1  ZINC000549659617   -0.6100
     31 H31        -9.4510   -1.3779   61.5765 H       1  ZINC000549659617    0.0600
     32 H32        -8.8603   -2.9158   60.9024 H       1  ZINC000549659617    0.0600
     33 H33        -8.4254   -1.3765   60.1217 H       1  ZINC000549659617    0.0600
     34 H34       -11.2400   -2.5418   60.3141 H       1  ZINC000549659617    0.0700
     35 H35       -10.8050   -1.0024   59.5334 H       1  ZINC000549659617    0.0700
     36 H36        -9.0390   -2.7282   58.3255 H       1  ZINC000549659617    0.0800
     37 H37       -10.4444   -3.7920   58.5734 H       1  ZINC000549659617    0.0900
     38 H38       -11.7309   -0.8001   55.4146 H       1  ZINC000549659617    0.4000
     39 H39       -10.5442   -1.3874   53.6028 H       1  ZINC000549659617    0.1300
     40 H40        -9.1392   -1.9852   51.6708 H       1  ZINC000549659617    0.1400
     41 H41        -7.3079   -0.4950   50.9723 H       1  ZINC000549659617    0.1400
     42 H42        -8.2895    2.1936   54.1341 H       1  ZINC000549659617    0.1400
     43 H43       -11.2241    2.5050   54.0187 H       1  ZINC000549659617    0.1100
     44 H44       -13.5114    1.4480   53.7247 H       1  ZINC000549659617    0.0900
     45 H45       -12.9768    0.0076   54.7450 H       1  ZINC000549659617    0.0900
     46 H46       -12.5382    1.5580   56.7041 H       1  ZINC000549659617    0.1200
     47 H47       -13.0728    2.9984   55.6839 H       1  ZINC000549659617    0.0900
     48 H48       -12.4619   -3.5450   58.7725 H       1  ZINC000549659617    0.1100
     49 H49       -13.4294   -2.1052   58.3701 H       1  ZINC000549659617    0.0900
     50 H50       -14.4520   -4.6306   58.2088 H       1  ZINC000549659617    0.1400
     51 H51       -14.9624   -3.3302   57.0900 H       1  ZINC000549659617    0.1400
     52 H52       -11.3369   -3.8626   55.1072 H       1  ZINC000549659617    0.1400
     53 H53       -11.0277   -4.6390   56.6958 H       1  ZINC000549659617    0.1600
@<TRIPOS>BOND
     1     1     2    1
     2     1    31    1
     3     1    32    1
     4     1    33    1
     5     2     3    1
     6     2    34    1
     7     2    35    1
     8     3     4    1
     9     3    36    1
    10     3    37    1
    11     4     5   am
    12     4    23    1
    13     5     6    2
    14     5     7   am
    15     7     8    1
    16     7    38    1
    17     8     9    1
    18     8    10    1
    19     8    20    1
    20    10    19   ar
    21    10    11   ar
    22    11    12   ar
    23    11    39    1
    24    12    13   ar
    25    12    40    1
    26    13    14   ar
    27    13    41    1
    28    14    15    1
    29    14    19   ar
    30    15    16    1
    31    15    17    1
    32    15    18    1
    33    19    42    1
    34    20    22    1
    35    20    21    1
    36    20    43    1
    37    21    22    1
    38    21    44    1
    39    21    45    1
    40    22    46    1
    41    22    47    1
    42    23    24    1
    43    23    30    1
    44    23    25    1
    45    25    26    1
    46    25    48    1
    47    25    49    1
    48    26    27    1
    49    26    50    1
    50    26    51    1
    51    27    28    2
    52    27    29    2
    53    27    30    1
    54    30    52    1
    55    30    53    1
@<TRIPOS>SUBSTRUCTURE
     1 ZINC000549659617        1 TEMP              0 ****  ****    0 ROOT


##########                                Name:    ZINC000089894387
##########                DOCK_Rotatable_Bonds:                   8
##########                         Heavy_Atoms:                  22
##########                    Molecular_Weight:             326.823
##########                DOCK_Rotatable_Bonds:                   8
##########                       Formal_Charge:          -0.0300003
##########                     HBond_Acceptors:                   6
##########                        HBond_Donors:                   2
##########                         Heavy_Atoms:                  22
##########                          Grid_Score:          -32.600410
##########                     Grid_vdw_energy:          -31.954691
##########                      Grid_es_energy:           -0.645721
##########           Internal_energy_repulsive:           13.020020

@<TRIPOS>MOLECULE
ZINC000089894387
 45 46 1 0 0
SMALL
USER_CHARGES


@<TRIPOS>ATOM
      1 C1        -12.4628   -3.8957   54.5541 C.3     1  ZINC000089894387   -0.1700
      2 C2        -12.6115   -4.0713   56.0668 C.3     1  ZINC000089894387    0.1700
      3 H3        -12.4711   -5.1206   56.3263 H       1  ZINC000089894387    0.0900
      4 N4        -11.6041   -3.2594   56.7539 N.am    1  ZINC000089894387   -0.7400
      5 C5        -10.9030   -3.7815   57.7797 C.2     1  ZINC000089894387    0.7100
      6 O6        -11.1075   -4.9259   58.1359 O.2     1  ZINC000089894387   -0.5900
      7 N7         -9.9751   -3.0351   58.4109 N.am    1  ZINC000089894387   -0.7500
      8 C8         -9.2118   -3.6031   59.5248 C.3     1  ZINC000089894387    0.1400
      9 C9         -8.8716   -2.4976   60.5262 C.3     1  ZINC000089894387    0.0500
     10 O10       -10.0572   -2.0998   61.2176 O.3     1  ZINC000089894387   -0.3100
     11 C11       -10.0146   -0.9169   61.8852 C.ar    1  ZINC000089894387    0.1400
     12 C12       -10.9491    0.0706   61.6093 C.ar    1  ZINC000089894387   -0.2100
     13 C13       -10.9042    1.2726   62.2890 C.ar    1  ZINC000089894387   -0.0700
     14 C14        -9.9291    1.4925   63.2438 C.ar    1  ZINC000089894387   -0.1500
     15 C15        -8.9950    0.5093   63.5211 C.ar    1  ZINC000089894387    0.0000
     16 Cl16       -7.7717    0.7885   64.7207 Cl      1  ZINC000089894387   -0.0600
     17 C17        -9.0400   -0.6972   62.8478 C.ar    1  ZINC000089894387   -0.1500
     18 C18       -14.0091   -3.6220   56.4975 C.3     1  ZINC000089894387   -0.1000
     19 C19       -14.2514   -4.0274   57.9546 C.3     1  ZINC000089894387   -0.1600
     20 C20       -15.6196   -3.5052   58.4008 C.3     1  ZINC000089894387    0.0600
     21 O21       -15.6636   -2.0865   58.2352 O.3     1  ZINC000089894387   -0.3800
     22 C22       -15.4904   -1.6508   56.8853 C.3     1  ZINC000089894387    0.0600
     23 C23       -14.1170   -2.0986   56.3783 C.3     1  ZINC000089894387   -0.1500
     24 H24       -12.6032   -2.8464   54.2946 H       1  ZINC000089894387    0.0600
     25 H25       -11.4672   -4.2159   54.2473 H       1  ZINC000089894387    0.0600
     26 H26       -13.2123   -4.4998   54.0429 H       1  ZINC000089894387    0.0700
     27 H27       -11.4417   -2.3460   56.4706 H       1  ZINC000089894387    0.3900
     28 H28        -9.8128   -2.1216   58.1275 H       1  ZINC000089894387    0.4000
     29 H29        -9.8072   -4.3706   60.0192 H       1  ZINC000089894387    0.0800
     30 H30        -8.2907   -4.0458   59.1456 H       1  ZINC000089894387    0.0900
     31 H31        -8.1401   -2.8697   61.2437 H       1  ZINC000089894387    0.0900
     32 H32        -8.4563   -1.6412   59.9949 H       1  ZINC000089894387    0.0700
     33 H33       -11.7111   -0.1001   60.8633 H       1  ZINC000089894387    0.1300
     34 H34       -11.6314    2.0415   62.0739 H       1  ZINC000089894387    0.1400
     35 H35        -9.8957    2.4328   63.7739 H       1  ZINC000089894387    0.1400
     36 H36        -8.3114   -1.4645   63.0644 H       1  ZINC000089894387    0.1400
     37 H37       -14.7563   -4.0916   55.8578 H       1  ZINC000089894387    0.0800
     38 H38       -14.2311   -5.1140   58.0385 H       1  ZINC000089894387    0.0700
     39 H39       -13.4739   -3.5978   58.5863 H       1  ZINC000089894387    0.0800
     40 H40       -16.3998   -3.9662   57.7951 H       1  ZINC000089894387    0.0500
     41 H41       -15.7791   -3.7539   59.4500 H       1  ZINC000089894387    0.0900
     42 H42       -16.2690   -2.0877   56.2597 H       1  ZINC000089894387    0.0500
     43 H43       -15.5569   -0.5638   56.8427 H       1  ZINC000089894387    0.1000
     44 H44       -13.3368   -1.6301   56.9781 H       1  ZINC000089894387    0.0800
     45 H45       -14.0007   -1.8058   55.3347 H       1  ZINC000089894387    0.0800
@<TRIPOS>BOND
     1     1     2    1
     2     1    24    1
     3     1    25    1
     4     1    26    1
     5     2     3    1
     6     2     4    1
     7     2    18    1
     8     4     5   am
     9     4    27    1
    10     5     6    2
    11     5     7   am
    12     7     8    1
    13     7    28    1
    14     8     9    1
    15     8    29    1
    16     8    30    1
    17     9    10    1
    18     9    31    1
    19     9    32    1
    20    10    11    1
    21    11    17   ar
    22    11    12   ar
    23    12    13   ar
    24    12    33    1
    25    13    14   ar
    26    13    34    1
    27    14    15   ar
    28    14    35    1
    29    15    16    1
    30    15    17   ar
    31    17    36    1
    32    18    23    1
    33    18    19    1
    34    18    37    1
    35    19    20    1
    36    19    38    1
    37    19    39    1
    38    20    21    1
    39    20    40    1
    40    20    41    1
    41    21    22    1
    42    22    23    1
    43    22    42    1
    44    22    43    1
    45    23    44    1
    46    23    45    1
@<TRIPOS>SUBSTRUCTURE
     1 ZINC000089894387        1 TEMP              0 ****  ****    0 ROOT


##########                                Name:    ZINC000052999724
##########                DOCK_Rotatable_Bonds:                   6
##########                         Heavy_Atoms:                  25
##########                    Molecular_Weight:             398.571
##########                DOCK_Rotatable_Bonds:                   6
##########                       Formal_Charge:           0.0399994
##########                     HBond_Acceptors:                   8
##########                        HBond_Donors:                   1
##########                         Heavy_Atoms:                  25
##########                          Grid_Score:          -32.561512
##########                     Grid_vdw_energy:          -31.619448
##########                      Grid_es_energy:           -0.942063
##########           Internal_energy_repulsive:           11.793757

@<TRIPOS>MOLECULE
ZINC000052999724
 47 49 1 0 0
SMALL
USER_CHARGES


@<TRIPOS>ATOM
      1 C1        -13.0927    0.7229   54.3087 C.3     1  ZINC000052999724   -0.1400
      2 C2        -13.8866   -0.5570   54.0391 C.3     1  ZINC000052999724   -0.0400
      3 C3        -15.0509   -0.2458   53.0967 C.3     1  ZINC000052999724   -0.1400
      4 C4        -12.9849   -1.5826   53.4020 C.2     1  ZINC000052999724   -0.0400
      5 C5        -12.7392   -2.8104   53.9493 C.2     1  ZINC000052999724   -0.2600
      6 C6        -13.3007   -3.3078   55.2086 C.2     1  ZINC000052999724    0.6000
      7 O7        -14.4769   -3.6141   55.2715 O.2     1  ZINC000052999724   -0.5200
      8 N8        -12.5144   -3.4259   56.2970 N.am    1  ZINC000052999724   -0.6000
      9 C9        -11.0942   -3.0543   56.2383 C.3     1  ZINC000052999724    0.1100
     10 C10       -10.7990   -2.0554   57.3615 C.3     1  ZINC000052999724   -0.1400
     11 C11       -11.2372   -2.6546   58.6998 C.3     1  ZINC000052999724    0.1500
     12 N12       -10.9261   -1.7154   59.7803 N.am    1  ZINC000052999724   -1.1100
     13 S13        -9.5005   -1.8526   60.6117 S.o2    1  ZINC000052999724    2.7200
     14 O14        -9.5706   -3.0772   61.3291 O.2     1  ZINC000052999724   -0.9500
     15 O15        -8.4653   -1.5526   59.6855 O.2     1  ZINC000052999724   -0.9400
     16 C16        -9.4752   -0.5694   61.8189 C.2     1  ZINC000052999724   -0.8000
     17 C17        -8.8693   -0.6415   63.0051 C.2     1  ZINC000052999724    0.0100
     18 C18        -8.9842    0.4939   63.7886 C.2     1  ZINC000052999724   -0.1600
     19 C19        -9.6833    1.4879   63.2387 C.2     1  ZINC000052999724   -0.1700
     20 S20       -10.2384    1.0052   61.6411 S.3     1  ZINC000052999724    0.2100
     21 C21       -12.7442   -2.9199   58.6730 C.3     1  ZINC000052999724   -0.1500
     22 C22       -13.0628   -3.9229   57.5662 C.3     1  ZINC000052999724    0.1100
     23 S23       -11.6422   -3.6982   52.9005 S.3     1  ZINC000052999724    0.2100
     24 C24       -11.5695   -2.3981   51.7980 C.2     1  ZINC000052999724   -0.2400
     25 C25       -12.3322   -1.3785   52.2095 C.2     1  ZINC000052999724   -0.1300
     26 H26       -12.2632    0.5013   54.9801 H       1  ZINC000052999724    0.0600
     27 H27       -12.7045    1.1144   53.3685 H       1  ZINC000052999724    0.0600
     28 H28       -13.7449    1.4647   54.7695 H       1  ZINC000052999724    0.0600
     29 H29       -14.2749   -0.9485   54.9794 H       1  ZINC000052999724    0.0800
     30 H30       -14.6627    0.1457   52.1564 H       1  ZINC000052999724    0.0600
     31 H31       -15.6166   -1.1576   52.9046 H       1  ZINC000052999724    0.0600
     32 H32       -15.7032    0.4960   53.5574 H       1  ZINC000052999724    0.0600
     33 H33       -10.4781   -3.9439   56.3691 H       1  ZINC000052999724    0.0800
     34 H34       -10.8762   -2.5949   55.2741 H       1  ZINC000052999724    0.0900
     35 H35        -9.7299   -1.8450   57.3897 H       1  ZINC000052999724    0.0900
     36 H36       -11.3475   -1.1311   57.1798 H       1  ZINC000052999724    0.0800
     37 H37       -10.7067   -3.5916   58.8692 H       1  ZINC000052999724    0.0900
     38 H38       -11.5550   -1.0132   60.0086 H       1  ZINC000052999724    0.4200
     39 H39        -8.3303   -1.5192   63.3297 H       1  ZINC000052999724    0.1600
     40 H40        -8.5416    0.5690   64.7709 H       1  ZINC000052999724    0.1500
     41 H41        -9.8759    2.4443   63.7022 H       1  ZINC000052999724    0.1800
     42 H42       -13.0595   -3.3248   59.6346 H       1  ZINC000052999724    0.1000
     43 H43       -13.2743   -1.9874   58.4789 H       1  ZINC000052999724    0.0800
     44 H44       -14.1431   -4.0392   57.4785 H       1  ZINC000052999724    0.1000
     45 H45       -12.6076   -4.8846   57.8026 H       1  ZINC000052999724    0.0800
     46 H46       -10.9886   -2.3995   50.8875 H       1  ZINC000052999724    0.1700
     47 H47       -12.4219   -0.4593   51.6497 H       1  ZINC000052999724    0.1400
@<TRIPOS>BOND
     1     1     2    1
     2     1    26    1
     3     1    27    1
     4     1    28    1
     5     2     3    1
     6     2     4    1
     7     2    29    1
     8     3    30    1
     9     3    31    1
    10     3    32    1
    11     4    25    1
    12     4     5    2
    13     5     6    1
    14     5    23    1
    15     6     7    2
    16     6     8   am
    17     8    22    1
    18     8     9    1
    19     9    10    1
    20     9    33    1
    21     9    34    1
    22    10    11    1
    23    10    35    1
    24    10    36    1
    25    11    12    1
    26    11    21    1
    27    11    37    1
    28    12    13   am
    29    12    38    1
    30    13    14    2
    31    13    15    2
    32    13    16    1
    33    16    20    1
    34    16    17    2
    35    17    18    1
    36    17    39    1
    37    18    19    2
    38    18    40    1
    39    19    20    1
    40    19    41    1
    41    21    22    1
    42    21    42    1
    43    21    43    1
    44    22    44    1
    45    22    45    1
    46    23    24    1
    47    24    25    2
    48    24    46    1
    49    25    47    1
@<TRIPOS>SUBSTRUCTURE
     1 ZINC000052999724        1 TEMP              0 ****  ****    0 ROOT


##########                                Name:    ZINC001282645012
##########                DOCK_Rotatable_Bonds:                   9
##########                         Heavy_Atoms:                  27
##########                    Molecular_Weight:             372.511
##########                DOCK_Rotatable_Bonds:                   9
##########                       Formal_Charge:          -0.0200004
##########                     HBond_Acceptors:                   6
##########                        HBond_Donors:                   1
##########                         Heavy_Atoms:                  27
##########                          Grid_Score:          -32.557018
##########                     Grid_vdw_energy:          -32.470531
##########                      Grid_es_energy:           -0.086488
##########           Internal_energy_repulsive:           27.722374

@<TRIPOS>MOLECULE
ZINC001282645012
 59 61 1 0 0
SMALL
USER_CHARGES


@<TRIPOS>ATOM
      1 C1         -9.8740    0.2122   59.5406 C.2     1  ZINC001282645012   -0.1900
      2 C2         -9.3066   -0.9287   59.2368 C.2     1  ZINC001282645012   -0.1300
      3 C3         -9.7901   -2.2047   59.8765 C.3     1  ZINC001282645012   -0.0500
      4 C4         -9.0279   -3.3923   59.2852 C.3     1  ZINC001282645012   -0.1500
      5 C5         -9.5462   -2.1426   61.3858 C.3     1  ZINC001282645012   -0.1400
      6 C6        -11.2643   -2.3720   59.6124 C.2     1  ZINC001282645012    0.5500
      7 O7        -12.0272   -2.5669   60.5347 O.2     1  ZINC001282645012   -0.5300
      8 N8        -11.7347   -2.3049   58.3512 N.am    1  ZINC001282645012   -0.6300
      9 C9        -13.1326   -2.4343   57.8158 C.3     1  ZINC001282645012    0.1200
     10 H10       -13.9103   -2.6188   58.5568 H       1  ZINC001282645012    0.1300
     11 C11       -12.9413   -3.5539   56.7487 C.3     1  ZINC001282645012   -0.1300
     12 C12       -11.5042   -3.3110   56.2256 C.3     1  ZINC001282645012   -0.1300
     13 C13       -11.0237   -2.0711   57.0485 C.3     1  ZINC001282645012    0.1200
     14 H14        -9.9436   -1.9399   57.1139 H       1  ZINC001282645012    0.1200
     15 C15       -11.8133   -0.8635   56.4597 C.3     1  ZINC001282645012    0.1300
     16 H16       -11.4179    0.0773   56.8425 H       1  ZINC001282645012    0.1000
     17 N17       -11.7687   -0.8823   54.9954 N.am    1  ZINC001282645012   -0.7100
     18 C18       -10.8167   -0.1880   54.3412 C.2     1  ZINC001282645012    0.5100
     19 O19        -9.9978    0.4536   54.9646 O.2     1  ZINC001282645012   -0.5100
     20 C20       -10.7698   -0.2089   52.8351 C.3     1  ZINC001282645012    0.1200
     21 H21       -11.4025   -1.0147   52.4630 H       1  ZINC001282645012    0.1300
     22 C22       -11.2745    1.1288   52.2905 C.3     1  ZINC001282645012   -0.1100
     23 C23       -12.6036    0.9146   51.5634 C.3     1  ZINC001282645012   -0.1000
     24 C24       -13.7436    0.8830   52.5833 C.3     1  ZINC001282645012   -0.1500
     25 C25       -12.8348    2.0597   50.5754 C.3     1  ZINC001282645012   -0.1500
     26 N26        -9.3903   -0.4272   52.3925 N.pl3   1  ZINC001282645012   -0.4500
     27 C27        -8.4152    0.5259   52.2731 C.2     1  ZINC001282645012   -0.0600
     28 C28        -7.3065   -0.1032   51.8391 C.2     1  ZINC001282645012   -0.0200
     29 N29        -7.5967   -1.4049   51.6972 N.2     1  ZINC001282645012   -0.4900
     30 C30        -8.8418   -1.6072   52.0317 C.2     1  ZINC001282645012    0.1900
     31 C31       -13.2695   -1.1049   57.0140 C.3     1  ZINC001282645012   -0.1400
     32 H32       -10.6884    0.2384   60.2496 H       1  ZINC001282645012    0.1000
     33 H33        -9.5246    1.1272   59.0856 H       1  ZINC001282645012    0.1000
     34 H34        -8.4923   -0.9550   58.5279 H       1  ZINC001282645012    0.1100
     35 H35        -7.9617   -3.2713   59.4763 H       1  ZINC001282645012    0.0700
     36 H36        -9.3776   -4.3152   59.7480 H       1  ZINC001282645012    0.0700
     37 H37        -9.2017   -3.4366   58.2101 H       1  ZINC001282645012    0.0600
     38 H38       -10.0890   -1.2965   61.8070 H       1  ZINC001282645012    0.0600
     39 H39        -9.8958   -3.0655   61.8485 H       1  ZINC001282645012    0.0700
     40 H40        -8.4800   -2.0216   61.5768 H       1  ZINC001282645012    0.0700
     41 H41       -13.0214   -4.5394   57.2076 H       1  ZINC001282645012    0.0800
     42 H42       -13.6668   -3.4443   55.9428 H       1  ZINC001282645012    0.0800
     43 H43       -10.8717   -4.1760   56.4250 H       1  ZINC001282645012    0.0700
     44 H44       -11.5171   -3.0810   55.1603 H       1  ZINC001282645012    0.0800
     45 H45       -12.4244   -1.3946   54.4968 H       1  ZINC001282645012    0.4000
     46 H46       -11.4201    1.8255   53.1160 H       1  ZINC001282645012    0.0900
     47 H47       -10.5416    1.5377   51.5949 H       1  ZINC001282645012    0.0800
     48 H48       -12.5736   -0.0313   51.0227 H       1  ZINC001282645012    0.0700
     49 H49       -13.7736    1.8290   53.1241 H       1  ZINC001282645012    0.0600
     50 H50       -14.6904    0.7304   52.0653 H       1  ZINC001282645012    0.0600
     51 H51       -13.5788    0.0672   53.2872 H       1  ZINC001282645012    0.0500
     52 H52       -12.0701    2.0298   49.7992 H       1  ZINC001282645012    0.0600
     53 H53       -13.8192    1.9534   50.1199 H       1  ZINC001282645012    0.0600
     54 H54       -12.7795    3.0117   51.1033 H       1  ZINC001282645012    0.0600
     55 H55        -8.5157    1.5800   52.4859 H       1  ZINC001282645012    0.1700
     56 H56        -6.3510    0.3593   51.6400 H       1  ZINC001282645012    0.1700
     57 H57        -9.3511   -2.5595   52.0162 H       1  ZINC001282645012    0.2000
     58 H58       -13.9741   -1.2451   56.1942 H       1  ZINC001282645012    0.0900
     59 H59       -13.5800   -0.2770   57.6511 H       1  ZINC001282645012    0.0900
@<TRIPOS>BOND
     1     1     2    2
     2     1    32    1
     3     1    33    1
     4     2     3    1
     5     2    34    1
     6     3     4    1
     7     3     5    1
     8     3     6    1
     9     4    35    1
    10     4    36    1
    11     4    37    1
    12     5    38    1
    13     5    39    1
    14     5    40    1
    15     6     7    2
    16     6     8   am
    17     8    13    1
    18     8     9    1
    19     9    10    1
    20     9    31    1
    21     9    11    1
    22    11    12    1
    23    11    41    1
    24    11    42    1
    25    12    13    1
    26    12    43    1
    27    12    44    1
    28    13    14    1
    29    13    15    1
    30    15    16    1
    31    15    17    1
    32    15    31    1
    33    17    18   am
    34    17    45    1
    35    18    19    2
    36    18    20    1
    37    20    21    1
    38    20    22    1
    39    20    26    1
    40    22    23    1
    41    22    46    1
    42    22    47    1
    43    23    24    1
    44    23    25    1
    45    23    48    1
    46    24    49    1
    47    24    50    1
    48    24    51    1
    49    25    52    1
    50    25    53    1
    51    25    54    1
    52    26    30    1
    53    26    27    1
    54    27    28    2
    55    27    55    1
    56    28    29    1
    57    28    56    1
    58    29    30    2
    59    30    57    1
    60    31    58    1
    61    31    59    1
@<TRIPOS>SUBSTRUCTURE
     1 ZINC001282645012        1 TEMP              0 ****  ****    0 ROOT


##########                                Name:    ZINC001009984555
##########                DOCK_Rotatable_Bonds:                   7
##########                         Heavy_Atoms:                  23
##########                    Molecular_Weight:             338.446
##########                DOCK_Rotatable_Bonds:                   7
##########                       Formal_Charge:           0.0400002
##########                     HBond_Acceptors:                   6
##########                        HBond_Donors:                   1
##########                         Heavy_Atoms:                  23
##########                          Grid_Score:          -32.551579
##########                     Grid_vdw_energy:          -31.834026
##########                      Grid_es_energy:           -0.717554
##########           Internal_energy_repulsive:           12.439027

@<TRIPOS>MOLECULE
ZINC001009984555
 46 47 1 0 0
SMALL
USER_CHARGES


@<TRIPOS>ATOM
      1 C1        -12.7430   -1.1850   51.3576 C.3     1  ZINC001009984555   -0.1400
      2 S2        -11.4761   -2.4575   51.6155 S.3     1  ZINC001009984555   -0.1800
      3 C3        -11.2300   -2.4300   53.4125 C.3     1  ZINC001009984555   -0.1300
      4 C4        -12.3656   -3.1565   54.0862 C.2     1  ZINC001009984555    0.5500
      5 O5        -13.3961   -3.3645   53.4814 O.2     1  ZINC001009984555   -0.5100
      6 N6        -12.2360   -3.5751   55.3607 N.am    1  ZINC001009984555   -0.6100
      7 C7        -11.0476   -3.3828   56.2116 C.3     1  ZINC001009984555    0.1000
      8 C8        -11.5845   -3.4477   57.6632 C.3     1  ZINC001009984555   -0.1100
      9 H9        -12.0185   -2.4936   57.9624 H       1  ZINC001009984555    0.1000
     10 C10       -10.4840   -3.8755   58.6363 C.3     1  ZINC001009984555    0.1300
     11 N11       -10.5767   -3.0759   59.8604 N.am    1  ZINC001009984555   -0.7300
     12 C12        -9.8056   -1.9807   60.0099 C.2     1  ZINC001009984555    0.5600
     13 O13        -9.0341   -1.6557   59.1286 O.2     1  ZINC001009984555   -0.5200
     14 C14        -9.8979   -1.1747   61.2460 C.ar    1  ZINC001009984555   -0.1200
     15 C15        -8.9518   -1.3353   62.2593 C.ar    1  ZINC001009984555   -0.0900
     16 C16        -9.0425   -0.5806   63.4109 C.ar    1  ZINC001009984555   -0.1000
     17 C17       -10.0685    0.3340   63.5637 C.ar    1  ZINC001009984555   -0.1200
     18 C18       -11.0119    0.4993   62.5620 C.ar    1  ZINC001009984555    0.0900
     19 F19       -12.0115    1.3946   62.7179 F       1  ZINC001009984555   -0.1300
     20 C20       -10.9281   -0.2461   61.4016 C.ar    1  ZINC001009984555   -0.0500
     21 C21       -11.9539   -0.0662   60.3124 C.3     1  ZINC001009984555   -0.1200
     22 C22       -12.6775   -4.5424   57.5424 C.3     1  ZINC001009984555   -0.1200
     23 C23       -13.2589   -4.2934   56.1348 C.3     1  ZINC001009984555    0.1400
     24 H24       -13.4816   -5.2450   55.6521 H       1  ZINC001009984555    0.0800
     25 C25       -14.5328   -3.4526   56.2393 C.3     1  ZINC001009984555   -0.1700
     26 H26       -12.3713   -0.2247   51.7149 H       1  ZINC001009984555    0.0800
     27 H27       -12.9741   -1.1125   50.2949 H       1  ZINC001009984555    0.1100
     28 H28       -13.6447   -1.4533   51.9081 H       1  ZINC001009984555    0.0800
     29 H29       -10.2883   -2.9210   53.6578 H       1  ZINC001009984555    0.1100
     30 H30       -11.2027   -1.3972   53.7598 H       1  ZINC001009984555    0.1100
     31 H31       -10.3243   -4.1797   56.0387 H       1  ZINC001009984555    0.0800
     32 H32       -10.5954   -2.4102   56.0176 H       1  ZINC001009984555    0.0800
     33 H33       -10.6058   -4.9307   58.8815 H       1  ZINC001009984555    0.0800
     34 H34        -9.5094   -3.7201   58.1738 H       1  ZINC001009984555    0.0800
     35 H35       -11.1932   -3.3346   60.5632 H       1  ZINC001009984555    0.4000
     36 H36        -8.1502   -2.0496   62.1425 H       1  ZINC001009984555    0.1300
     37 H37        -8.3104   -0.7049   64.1952 H       1  ZINC001009984555    0.1400
     38 H38       -10.1351    0.9216   64.4675 H       1  ZINC001009984555    0.1400
     39 H39       -11.5659    0.6175   59.5573 H       1  ZINC001009984555    0.0800
     40 H40       -12.1690   -1.0309   59.8529 H       1  ZINC001009984555    0.1000
     41 H41       -12.8687    0.3450   60.7392 H       1  ZINC001009984555    0.0600
     42 H42       -12.2365   -5.5369   57.6111 H       1  ZINC001009984555    0.0900
     43 H43       -13.4454   -4.4064   58.3040 H       1  ZINC001009984555    0.0900
     44 H44       -14.2993   -2.4957   56.7065 H       1  ZINC001009984555    0.0600
     45 H45       -14.9376   -3.2808   55.2420 H       1  ZINC001009984555    0.0700
     46 H46       -15.2690   -3.9820   56.8441 H       1  ZINC001009984555    0.0700
@<TRIPOS>BOND
     1     1     2    1
     2     1    26    1
     3     1    27    1
     4     1    28    1
     5     2     3    1
     6     3     4    1
     7     3    29    1
     8     3    30    1
     9     4     5    2
    10     4     6   am
    11     6    23    1
    12     6     7    1
    13     7     8    1
    14     7    31    1
    15     7    32    1
    16     8     9    1
    17     8    10    1
    18     8    22    1
    19    10    11    1
    20    10    33    1
    21    10    34    1
    22    11    12   am
    23    11    35    1
    24    12    13    2
    25    12    14    1
    26    14    20   ar
    27    14    15   ar
    28    15    16   ar
    29    15    36    1
    30    16    17   ar
    31    16    37    1
    32    17    18   ar
    33    17    38    1
    34    18    19    1
    35    18    20   ar
    36    20    21    1
    37    21    39    1
    38    21    40    1
    39    21    41    1
    40    22    23    1
    41    22    42    1
    42    22    43    1
    43    23    24    1
    44    23    25    1
    45    25    44    1
    46    25    45    1
    47    25    46    1
@<TRIPOS>SUBSTRUCTURE
     1 ZINC001009984555        1 TEMP              0 ****  ****    0 ROOT


##########                                Name:    ZINC000790735374
##########                DOCK_Rotatable_Bonds:                   5
##########                         Heavy_Atoms:                  25
##########                    Molecular_Weight:             353.445
##########                DOCK_Rotatable_Bonds:                   5
##########                       Formal_Charge:                   0
##########                     HBond_Acceptors:                   6
##########                        HBond_Donors:                   1
##########                         Heavy_Atoms:                  25
##########                          Grid_Score:          -32.538189
##########                     Grid_vdw_energy:          -31.907125
##########                      Grid_es_energy:           -0.631062
##########           Internal_energy_repulsive:           10.956957

@<TRIPOS>MOLECULE
ZINC000790735374
 44 47 1 0 0
SMALL
USER_CHARGES


@<TRIPOS>ATOM
      1 O1        -12.4700   -3.5539   56.4547 O.2     1  ZINC000790735374   -0.5100
      2 C2        -11.8517   -2.8698   55.6669 C.2     1  ZINC000790735374    0.5000
      3 N3        -10.7991   -2.1411   56.0884 N.am    1  ZINC000790735374   -0.7200
      4 C4        -10.4057   -2.1705   57.4992 C.3     1  ZINC000790735374    0.1400
      5 C5         -9.7528   -0.8387   57.8746 C.3     1  ZINC000790735374   -0.0300
      6 H6         -8.7313   -0.8184   57.4948 H       1  ZINC000790735374    0.1100
      7 S7        -10.6955    0.5212   57.1330 S.3     1  ZINC000790735374   -0.2400
      8 C8        -10.0152    1.9451   58.0409 C.3     1  ZINC000790735374   -0.0800
      9 C9        -10.3808    1.7768   59.5082 C.3     1  ZINC000790735374   -0.0800
     10 C10        -9.9792    0.4463   60.0785 C.ar    1  ZINC000790735374   -0.0700
     11 C11        -9.8677    0.4230   61.4728 C.ar    1  ZINC000790735374   -0.1200
     12 C12        -9.5240   -0.7248   62.1474 C.ar    1  ZINC000790735374   -0.1100
     13 C13        -9.2845   -1.8864   61.4369 C.ar    1  ZINC000790735374   -0.1200
     14 C14        -9.3866   -1.8688   60.0647 C.ar    1  ZINC000790735374   -0.1100
     15 C15        -9.7296   -0.7003   59.3768 C.ar    1  ZINC000790735374   -0.0800
     16 C16       -12.2564   -2.8394   54.2156 C.3     1  ZINC000790735374    0.0300
     17 H17       -13.3275   -3.0102   54.1077 H       1  ZINC000790735374    0.1500
     18 C18       -11.8385   -1.5056   53.5518 C.3     1  ZINC000790735374   -0.1400
     19 C19       -10.4891   -1.8462   52.9485 C.2     1  ZINC000790735374    0.1200
     20 C20        -9.4860   -0.8749   52.4688 C.ar    1  ZINC000790735374   -0.1000
     21 C21        -8.3230   -1.3123   51.8236 C.ar    1  ZINC000790735374   -0.0400
     22 C22        -7.4147   -0.3612   51.3929 C.ar    1  ZINC000790735374   -0.1700
     23 C23        -7.6820    0.9781   51.6112 C.ar    1  ZINC000790735374    0.1200
     24 N24        -8.7866    1.3617   52.2223 N.ar    1  ZINC000790735374   -0.4800
     25 C25        -9.6837    0.4959   52.6458 C.ar    1  ZINC000790735374    0.1400
     26 N26       -10.3685   -3.1312   52.9265 N.2     1  ZINC000790735374   -0.2700
     27 O27       -11.5009   -3.7992   53.4490 O.3     1  ZINC000790735374   -0.1600
     28 H28       -10.3021   -1.5970   55.4576 H       1  ZINC000790735374    0.4100
     29 H29       -11.2878   -2.3303   58.1192 H       1  ZINC000790735374    0.0800
     30 H30        -9.6958   -2.9817   57.6616 H       1  ZINC000790735374    0.0900
     31 H31        -8.9310    1.9697   57.9308 H       1  ZINC000790735374    0.0900
     32 H32       -10.4472    2.8690   57.6562 H       1  ZINC000790735374    0.1100
     33 H33        -9.8919    2.5642   60.0820 H       1  ZINC000790735374    0.0900
     34 H34       -11.4596    1.8905   59.6141 H       1  ZINC000790735374    0.0900
     35 H35       -10.0556    1.3275   62.0323 H       1  ZINC000790735374    0.1200
     36 H36        -9.4414   -0.7189   63.2242 H       1  ZINC000790735374    0.1300
     37 H37        -9.0198   -2.7973   61.9532 H       1  ZINC000790735374    0.1300
     38 H38        -9.2005   -2.7758   59.5087 H       1  ZINC000790735374    0.1300
     39 H39       -12.5486   -1.2206   52.7755 H       1  ZINC000790735374    0.1200
     40 H40       -11.7410   -0.7163   54.2972 H       1  ZINC000790735374    0.1100
     41 H41        -8.1393   -2.3649   51.6665 H       1  ZINC000790735374    0.1500
     42 H42        -6.5064   -0.6616   50.8917 H       1  ZINC000790735374    0.1500
     43 H43        -6.9745    1.7223   51.2763 H       1  ZINC000790735374    0.1600
     44 H44       -10.5760    0.8485   53.1415 H       1  ZINC000790735374    0.1600
@<TRIPOS>BOND
     1     1     2    2
     2     2     3   am
     3     2    16    1
     4     3     4    1
     5     3    28    1
     6     4     5    1
     7     4    29    1
     8     4    30    1
     9     5     6    1
    10     5    15    1
    11     5     7    1
    12     7     8    1
    13     8     9    1
    14     8    31    1
    15     8    32    1
    16     9    10    1
    17     9    33    1
    18     9    34    1
    19    10    15   ar
    20    10    11   ar
    21    11    12   ar
    22    11    35    1
    23    12    13   ar
    24    12    36    1
    25    13    14   ar
    26    13    37    1
    27    14    15   ar
    28    14    38    1
    29    16    17    1
    30    16    27    1
    31    16    18    1
    32    18    19    1
    33    18    39    1
    34    18    40    1
    35    19    20    1
    36    19    26    2
    37    20    25   ar
    38    20    21   ar
    39    21    22   ar
    40    21    41    1
    41    22    23   ar
    42    22    42    1
    43    23    24   ar
    44    23    43    1
    45    24    25   ar
    46    25    44    1
    47    26    27    1
@<TRIPOS>SUBSTRUCTURE
     1 ZINC000790735374        1 TEMP              0 ****  ****    0 ROOT


##########                                Name:    ZINC000558052810
##########                DOCK_Rotatable_Bonds:                   9
##########                         Heavy_Atoms:                  30
##########                    Molecular_Weight:             424.524
##########                DOCK_Rotatable_Bonds:                   9
##########                       Formal_Charge:          -0.0200002
##########                     HBond_Acceptors:                   8
##########                        HBond_Donors:                   1
##########                         Heavy_Atoms:                  30
##########                          Grid_Score:          -32.530273
##########                     Grid_vdw_energy:          -30.485865
##########                      Grid_es_energy:           -2.044410
##########           Internal_energy_repulsive:           17.424969

@<TRIPOS>MOLECULE
ZINC000558052810
 54 56 1 0 0
SMALL
USER_CHARGES


@<TRIPOS>ATOM
      1 C1        -13.9869   -1.1771   50.6316 C.3     1  ZINC000558052810   -0.1700
      2 C2        -13.0024   -2.0440   51.4193 C.3     1  ZINC000558052810    0.1100
      3 N3        -12.1911   -1.1915   52.2918 N.am    1  ZINC000558052810   -0.6100
      4 C4        -12.7123    0.1009   52.7437 C.3     1  ZINC000558052810    0.0700
      5 C5        -10.9652   -1.5963   52.6788 C.2     1  ZINC000558052810    0.5600
      6 O6        -10.5328   -2.6687   52.3040 O.2     1  ZINC000558052810   -0.5300
      7 C7        -10.1464   -0.7359   53.5594 C.ar    1  ZINC000558052810   -0.1100
      8 C8         -9.0633   -0.0278   53.0363 C.ar    1  ZINC000558052810   -0.1100
      9 C9         -8.3004    0.7746   53.8605 C.ar    1  ZINC000558052810   -0.1000
     10 C10        -8.6046    0.8798   55.2046 C.ar    1  ZINC000558052810   -0.1300
     11 C11        -9.6808    0.1784   55.7354 C.ar    1  ZINC000558052810    0.1400
     12 N12        -9.9841    0.2879   57.0966 N.am    1  ZINC000558052810   -0.6600
     13 C13       -10.8714    1.2111   57.5171 C.2     1  ZINC000558052810    0.5600
     14 O14       -11.4084    1.9489   56.7132 O.2     1  ZINC000558052810   -0.4800
     15 C15       -11.1910    1.3265   58.9510 C.ar    1  ZINC000558052810   -0.1900
     16 C16       -10.6062    2.3289   59.7332 C.ar    1  ZINC000558052810   -0.0200
     17 C17       -10.9392    2.3946   61.0746 C.ar    1  ZINC000558052810   -0.1900
     18 C18       -11.8316    1.4777   61.6012 C.ar    1  ZINC000558052810    0.1500
     19 N19       -12.3722    0.5398   60.8487 N.ar    1  ZINC000558052810   -0.4900
     20 C20       -12.0937    0.4347   59.5577 C.ar    1  ZINC000558052810    0.1600
     21 S21       -12.8455   -0.8387   58.5995 S.3     1  ZINC000558052810    0.0600
     22 C22       -12.3863   -2.2859   59.5847 C.3     1  ZINC000558052810   -0.0700
     23 C23       -11.9482   -3.3991   58.6682 C.2     1  ZINC000558052810   -0.2000
     24 C24       -12.7075   -4.1184   57.8075 C.2     1  ZINC000558052810   -0.0100
     25 C25       -14.1875   -3.9675   57.5672 C.3     1  ZINC000558052810   -0.0800
     26 O26       -11.8826   -4.9910   57.2118 O.3     1  ZINC000558052810    0.1000
     27 N27       -10.7475   -4.8737   57.6117 N.2     1  ZINC000558052810   -0.3600
     28 C28       -10.6484   -3.9301   58.5029 C.2     1  ZINC000558052810    0.0300
     29 C29        -9.3977   -3.4963   59.2231 C.3     1  ZINC000558052810   -0.0800
     30 C30       -10.4572   -0.6249   54.9148 C.ar    1  ZINC000558052810   -0.0700
     31 H31       -14.6371   -0.6439   51.3251 H       1  ZINC000558052810    0.0600
     32 H32       -13.4345   -0.4588   50.0260 H       1  ZINC000558052810    0.0600
     33 H33       -14.5905   -1.8115   49.9824 H       1  ZINC000558052810    0.0700
     34 H34       -13.5549   -2.7624   52.0248 H       1  ZINC000558052810    0.0800
     35 H35       -12.3523   -2.5773   50.7257 H       1  ZINC000558052810    0.0800
     36 H36       -13.3226   -0.0450   53.6350 H       1  ZINC000558052810    0.0600
     37 H37       -11.8812    0.7663   52.9774 H       1  ZINC000558052810    0.0800
     38 H38       -13.3211    0.5431   51.9550 H       1  ZINC000558052810    0.0700
     39 H39        -8.8220   -0.1080   51.9867 H       1  ZINC000558052810    0.1400
     40 H40        -7.4627    1.3217   53.4538 H       1  ZINC000558052810    0.1400
     41 H41        -8.0037    1.5090   55.8446 H       1  ZINC000558052810    0.1300
     42 H42        -9.5558   -0.3005   57.7378 H       1  ZINC000558052810    0.4100
     43 H43        -9.9117    3.0338   59.3003 H       1  ZINC000558052810    0.1400
     44 H44       -10.5055    3.1558   61.7060 H       1  ZINC000558052810    0.1500
     45 H45       -12.0898    1.5311   62.6486 H       1  ZINC000558052810    0.1700
     46 H46       -11.5678   -2.0241   60.2553 H       1  ZINC000558052810    0.1000
     47 H47       -13.2450   -2.6142   60.1704 H       1  ZINC000558052810    0.1000
     48 H48       -14.3541   -3.2452   56.7681 H       1  ZINC000558052810    0.0900
     49 H49       -14.6090   -4.9308   57.2800 H       1  ZINC000558052810    0.0900
     50 H50       -14.6700   -3.6174   58.4798 H       1  ZINC000558052810    0.0900
     51 H51        -8.9042   -2.7094   58.6525 H       1  ZINC000558052810    0.0800
     52 H52        -9.6600   -3.1185   60.2113 H       1  ZINC000558052810    0.0800
     53 H53        -8.7242   -4.3471   59.3264 H       1  ZINC000558052810    0.0800
     54 H54       -11.2940   -1.1705   55.3252 H       1  ZINC000558052810    0.1500
@<TRIPOS>BOND
     1     1     2    1
     2     1    31    1
     3     1    32    1
     4     1    33    1
     5     2     3    1
     6     2    34    1
     7     2    35    1
     8     3     4    1
     9     3     5   am
    10     4    36    1
    11     4    37    1
    12     4    38    1
    13     5     6    2
    14     5     7    1
    15     7    30   ar
    16     7     8   ar
    17     8     9   ar
    18     8    39    1
    19     9    10   ar
    20     9    40    1
    21    10    11   ar
    22    10    41    1
    23    11    12    1
    24    11    30   ar
    25    12    13   am
    26    12    42    1
    27    13    14    2
    28    13    15    1
    29    15    20   ar
    30    15    16   ar
    31    16    17   ar
    32    16    43    1
    33    17    18   ar
    34    17    44    1
    35    18    19   ar
    36    18    45    1
    37    19    20   ar
    38    20    21    1
    39    21    22    1
    40    22    23    1
    41    22    46    1
    42    22    47    1
    43    23    28    1
    44    23    24    2
    45    24    25    1
    46    24    26    1
    47    25    48    1
    48    25    49    1
    49    25    50    1
    50    26    27    1
    51    27    28    2
    52    28    29    1
    53    29    51    1
    54    29    52    1
    55    29    53    1
    56    30    54    1
@<TRIPOS>SUBSTRUCTURE
     1 ZINC000558052810        1 TEMP              0 ****  ****    0 ROOT


##########                                Name:    ZINC000076573199
##########                DOCK_Rotatable_Bonds:                  10
##########                         Heavy_Atoms:                  24
##########                    Molecular_Weight:             333.431
##########                DOCK_Rotatable_Bonds:                  10
##########                       Formal_Charge:          -0.0200009
##########                     HBond_Acceptors:                   6
##########                        HBond_Donors:                   3
##########                         Heavy_Atoms:                  24
##########                          Grid_Score:          -32.483845
##########                     Grid_vdw_energy:          -31.757936
##########                      Grid_es_energy:           -0.725909
##########           Internal_energy_repulsive:           12.199183

@<TRIPOS>MOLECULE
ZINC000076573199
 51 51 1 0 0
SMALL
USER_CHARGES


@<TRIPOS>ATOM
      1 C1         -5.1260    1.4144   50.3312 C.3     1  ZINC000076573199   -0.1500
      2 C2         -6.4579    0.6705   50.4482 C.3     1  ZINC000076573199   -0.1200
      3 C3         -7.1605    1.0834   51.7432 C.3     1  ZINC000076573199   -0.1000
      4 H4         -6.4149    1.2942   52.5097 H       1  ZINC000076573199    0.0700
      5 C5         -8.0697   -0.0532   52.2148 C.3     1  ZINC000076573199   -0.1500
      6 C6         -8.0005    2.3369   51.4903 C.3     1  ZINC000076573199   -0.1200
      7 C7         -7.7153    3.3706   52.5816 C.3     1  ZINC000076573199    0.1400
      8 H8         -6.6574    3.6324   52.5666 H       1  ZINC000076573199    0.1000
      9 C9         -8.5545    4.6246   52.3281 C.3     1  ZINC000076573199   -0.1700
     10 N10        -8.0607    2.8080   53.8894 N.am    1  ZINC000076573199   -0.6900
     11 C11        -7.2722    3.0480   54.9558 C.2     1  ZINC000076573199    0.5100
     12 O12        -6.2752    3.7290   54.8323 O.2     1  ZINC000076573199   -0.5100
     13 C13        -7.6253    2.4759   56.2894 C.2     1  ZINC000076573199    0.5100
     14 O14        -6.9556    2.7500   57.2640 O.2     1  ZINC000076573199   -0.5000
     15 N15        -8.6874    1.6552   56.4109 N.am    1  ZINC000076573199   -0.6400
     16 C16        -9.0177    1.1200   57.6585 C.ar    1  ZINC000076573199    0.1500
     17 C17        -9.5520    1.9377   58.6469 C.ar    1  ZINC000076573199   -0.1300
     18 C18        -9.8792    1.4088   59.8807 C.ar    1  ZINC000076573199   -0.0800
     19 C19        -9.6766    0.0663   60.1360 C.ar    1  ZINC000076573199   -0.1200
     20 C20       -10.0354   -0.5062   61.4830 C.3     1  ZINC000076573199   -0.1100
     21 C21        -9.1427   -0.7569   59.1519 C.ar    1  ZINC000076573199    0.1600
     22 N22        -8.9379   -2.1164   59.4116 N.am    1  ZINC000076573199   -0.6700
     23 C23        -9.7736   -3.0356   58.8890 C.2     1  ZINC000076573199    0.5100
     24 C24        -9.5531   -4.5000   59.1685 C.3     1  ZINC000076573199   -0.1700
     25 O25       -10.7032   -2.6844   58.1937 O.2     1  ZINC000076573199   -0.5200
     26 C26        -8.8179   -0.2305   57.9104 C.ar    1  ZINC000076573199   -0.1400
     27 H27        -4.4940    1.1638   51.1832 H       1  ZINC000076573199    0.0600
     28 H28        -4.6255    1.1203   49.4087 H       1  ZINC000076573199    0.0500
     29 H29        -5.3096    2.4886   50.3184 H       1  ZINC000076573199    0.0500
     30 H30        -7.0899    0.9210   49.5962 H       1  ZINC000076573199    0.0600
     31 H31        -6.2742   -0.4037   50.4610 H       1  ZINC000076573199    0.0600
     32 H32        -8.8653   -0.2083   51.4861 H       1  ZINC000076573199    0.0600
     33 H33        -7.4855   -0.9680   52.3152 H       1  ZINC000076573199    0.0600
     34 H34        -8.5060    0.2069   53.1791 H       1  ZINC000076573199    0.0500
     35 H35        -7.7442    2.7558   50.5172 H       1  ZINC000076573199    0.0800
     36 H36        -9.0584    2.0746   51.5057 H       1  ZINC000076573199    0.0700
     37 H37        -8.3513    5.3611   53.1056 H       1  ZINC000076573199    0.0600
     38 H38        -8.2976    5.0433   51.3551 H       1  ZINC000076573199    0.0700
     39 H39        -9.6126    4.3629   52.3431 H       1  ZINC000076573199    0.0600
     40 H40        -8.8569    2.2628   53.9879 H       1  ZINC000076573199    0.4100
     41 H41        -9.2226    1.4362   55.6320 H       1  ZINC000076573199    0.4200
     42 H42        -9.7112    2.9877   58.4506 H       1  ZINC000076573199    0.1400
     43 H43       -10.2939    2.0464   60.6474 H       1  ZINC000076573199    0.1300
     44 H44       -11.0690   -0.8520   61.4671 H       1  ZINC000076573199    0.0700
     45 H45        -9.3756   -1.3437   61.7092 H       1  ZINC000076573199    0.0600
     46 H46        -9.9212    0.2630   62.2468 H       1  ZINC000076573199    0.0700
     47 H47        -8.1944   -2.3975   59.9676 H       1  ZINC000076573199    0.4100
     48 H48        -9.6058   -4.6767   60.2429 H       1  ZINC000076573199    0.0900
     49 H49       -10.3226   -5.0858   58.6658 H       1  ZINC000076573199    0.1000
     50 H50        -8.5714   -4.7966   58.7993 H       1  ZINC000076573199    0.0900
     51 H51        -8.4028   -0.8683   57.1439 H       1  ZINC000076573199    0.1400
@<TRIPOS>BOND
     1     1     2    1
     2     1    27    1
     3     1    28    1
     4     1    29    1
     5     2     3    1
     6     2    30    1
     7     2    31    1
     8     3     4    1
     9     3     5    1
    10     3     6    1
    11     5    32    1
    12     5    33    1
    13     5    34    1
    14     6     7    1
    15     6    35    1
    16     6    36    1
    17     7     8    1
    18     7     9    1
    19     7    10    1
    20     9    37    1
    21     9    38    1
    22     9    39    1
    23    10    11   am
    24    10    40    1
    25    11    12    2
    26    11    13    1
    27    13    14    2
    28    13    15   am
    29    15    16    1
    30    15    41    1
    31    16    26   ar
    32    16    17   ar
    33    17    18   ar
    34    17    42    1
    35    18    19   ar
    36    18    43    1
    37    19    20    1
    38    19    21   ar
    39    20    44    1
    40    20    45    1
    41    20    46    1
    42    21    22    1
    43    21    26   ar
    44    22    23   am
    45    22    47    1
    46    23    24    1
    47    23    25    2
    48    24    48    1
    49    24    49    1
    50    24    50    1
    51    26    51    1
@<TRIPOS>SUBSTRUCTURE
     1 ZINC000076573199        1 TEMP              0 ****  ****    0 ROOT


##########                                Name:    ZINC000771225867
##########                DOCK_Rotatable_Bonds:                   9
##########                         Heavy_Atoms:                  23
##########                    Molecular_Weight:             355.802
##########                DOCK_Rotatable_Bonds:                   9
##########                       Formal_Charge:        -3.12924e-07
##########                     HBond_Acceptors:                   9
##########                        HBond_Donors:                   3
##########                         Heavy_Atoms:                  23
##########                          Grid_Score:          -32.459229
##########                     Grid_vdw_energy:          -31.305656
##########                      Grid_es_energy:           -1.153573
##########           Internal_energy_repulsive:            9.867212

@<TRIPOS>MOLECULE
ZINC000771225867
 37 38 1 0 0
SMALL
USER_CHARGES


@<TRIPOS>ATOM
      1 C1        -13.7044    1.6997   65.2535 C.3     1  ZINC000771225867    0.0400
      2 O2        -12.7360    1.1558   64.3543 O.3     1  ZINC000771225867   -0.3600
      3 C3        -13.1332    0.1287   63.5738 C.2     1  ZINC000771225867    0.5500
      4 O4        -14.2723   -0.2922   63.6551 O.2     1  ZINC000771225867   -0.4900
      5 C5        -12.2250   -0.4587   62.6610 C.2     1  ZINC000771225867   -0.3400
      6 C6        -12.5378   -1.3612   61.6782 C.2     1  ZINC000771225867    0.2700
      7 Cl7       -14.1522   -1.9354   61.4000 Cl      1  ZINC000771225867    0.0400
      8 N8        -11.5095   -1.7510   60.9680 N.2     1  ZINC000771225867   -0.5500
      9 C9        -10.3477   -1.2477   61.2735 C.2     1  ZINC000771225867    0.3400
     10 N10        -9.1679   -1.5490   60.6287 N.pl3   1  ZINC000771225867   -0.6700
     11 C11        -9.0629   -2.7702   59.8264 C.3     1  ZINC000771225867    0.1700
     12 C12        -9.7842   -2.5750   58.5177 C.ar    1  ZINC000771225867   -0.0800
     13 C13        -9.6238   -1.3986   57.8095 C.ar    1  ZINC000771225867   -0.1300
     14 C14       -10.2842   -1.2164   56.6083 C.ar    1  ZINC000771225867   -0.0800
     15 C15       -11.1061   -2.2099   56.1130 C.ar    1  ZINC000771225867   -0.2000
     16 C16       -11.2687   -3.3916   56.8218 C.ar    1  ZINC000771225867    0.1300
     17 O17       -12.0765   -4.3708   56.3364 O.3     1  ZINC000771225867   -0.2900
     18 C18       -13.4825   -4.1160   56.3461 C.3     1  ZINC000771225867    0.0400
     19 C19       -14.1529   -5.0359   57.3337 C.2     1  ZINC000771225867    0.5200
     20 N20       -14.7151   -4.5316   58.4501 N.am    1  ZINC000771225867   -0.8500
     21 O21       -14.1866   -6.2300   57.1240 O.2     1  ZINC000771225867   -0.5200
     22 C22       -10.6008   -3.5742   58.0238 C.ar    1  ZINC000771225867   -0.1200
     23 S23       -10.4915   -0.1550   62.5798 S.3     1  ZINC000771225867    0.2200
     24 H24       -14.5563    2.0751   64.6864 H       1  ZINC000771225867    0.0600
     25 H25       -14.0393    0.9224   65.9404 H       1  ZINC000771225867    0.0600
     26 H26       -13.2564    2.5163   65.8195 H       1  ZINC000771225867    0.1000
     27 H27        -8.4069   -0.9526   60.7061 H       1  ZINC000771225867    0.4200
     28 H28        -8.0126   -2.9890   59.6333 H       1  ZINC000771225867    0.0900
     29 H29        -9.5133   -3.6014   60.3690 H       1  ZINC000771225867    0.0900
     30 H30        -8.9820   -0.6204   58.1953 H       1  ZINC000771225867    0.1300
     31 H31       -10.1576   -0.2963   56.0571 H       1  ZINC000771225867    0.1300
     32 H32       -11.6219   -2.0669   55.1750 H       1  ZINC000771225867    0.1300
     33 H33       -13.6622   -3.0804   56.6344 H       1  ZINC000771225867    0.1000
     34 H34       -13.8906   -4.2922   55.3508 H       1  ZINC000771225867    0.1000
     35 H35       -15.1476   -5.1236   59.0852 H       1  ZINC000771225867    0.4000
     36 H36       -14.6872   -3.5768   58.6183 H       1  ZINC000771225867    0.4100
     37 H37       -10.7257   -4.4930   58.5774 H       1  ZINC000771225867    0.1400
@<TRIPOS>BOND
     1     1     2    1
     2     1    24    1
     3     1    25    1
     4     1    26    1
     5     2     3    1
     6     3     4    2
     7     3     5    1
     8     5    23    1
     9     5     6    2
    10     6     7    1
    11     6     8    1
    12     8     9    2
    13     9    10    1
    14     9    23    1
    15    10    11    1
    16    10    27    1
    17    11    12    1
    18    11    28    1
    19    11    29    1
    20    12    22   ar
    21    12    13   ar
    22    13    14   ar
    23    13    30    1
    24    14    15   ar
    25    14    31    1
    26    15    16   ar
    27    15    32    1
    28    16    17    1
    29    16    22   ar
    30    17    18    1
    31    18    19    1
    32    18    33    1
    33    18    34    1
    34    19    20   am
    35    19    21    2
    36    20    35    1
    37    20    36    1
    38    22    37    1
@<TRIPOS>SUBSTRUCTURE
     1 ZINC000771225867        1 TEMP              0 ****  ****    0 ROOT


##########                                Name:    ZINC000163855860
##########                DOCK_Rotatable_Bonds:                   6
##########                         Heavy_Atoms:                  28
##########                    Molecular_Weight:             398.483
##########                DOCK_Rotatable_Bonds:                   6
##########                       Formal_Charge:          -0.0100004
##########                     HBond_Acceptors:                   7
##########                        HBond_Donors:                   1
##########                         Heavy_Atoms:                  28
##########                          Grid_Score:          -32.443829
##########                     Grid_vdw_energy:          -32.380852
##########                      Grid_es_energy:           -0.062979
##########           Internal_energy_repulsive:           15.725716

@<TRIPOS>MOLECULE
ZINC000163855860
 50 53 1 0 0
SMALL
USER_CHARGES


@<TRIPOS>ATOM
      1 C1        -10.6383   -2.9418   57.8684 C.3     1  ZINC000163855860   -0.1300
      2 C2        -12.0039   -2.9447   58.5058 C.ar    1  ZINC000163855860   -0.0600
      3 C3        -13.1279   -3.2130   57.7404 C.ar    1  ZINC000163855860    0.1400
      4 N4        -12.9957   -3.4825   56.3735 N.am    1  ZINC000163855860   -0.6700
      5 C5        -12.9154   -2.4669   55.4910 C.2     1  ZINC000163855860    0.5100
      6 O6        -12.9577   -1.3194   55.8817 O.2     1  ZINC000163855860   -0.5100
      7 C7        -12.7730   -2.7571   54.0192 C.3     1  ZINC000163855860   -0.1300
      8 C8        -11.3013   -2.6428   53.6168 C.3     1  ZINC000163855860   -0.1100
      9 H9        -10.6904   -3.3582   54.1674 H       1  ZINC000163855860    0.1100
     10 C10       -11.1311   -2.8318   52.0922 C.3     1  ZINC000163855860    0.0600
     11 O11       -10.0402   -1.9328   51.7338 O.3     1  ZINC000163855860   -0.3500
     12 C12       -10.0360   -0.8710   52.5524 C.2     1  ZINC000163855860    0.4800
     13 O13        -9.5134    0.1910   52.3099 O.2     1  ZINC000163855860   -0.4500
     14 C14       -10.7840   -1.2021   53.8256 C.3     1  ZINC000163855860   -0.1800
     15 C15       -14.3858   -3.2202   58.3317 C.ar    1  ZINC000163855860   -0.1100
     16 C16       -14.5216   -2.9557   59.6814 C.ar    1  ZINC000163855860   -0.1100
     17 C17       -13.4090   -2.6826   60.4513 C.ar    1  ZINC000163855860   -0.1000
     18 C18       -12.1415   -2.6725   59.8669 C.ar    1  ZINC000163855860   -0.1100
     19 C19       -10.9479   -2.3807   60.6894 C.2     1  ZINC000163855860    0.5700
     20 O20       -10.3226   -3.2909   61.1974 O.2     1  ZINC000163855860   -0.5300
     21 N21       -10.5532   -1.1057   60.8759 N.am    1  ZINC000163855860   -0.6100
     22 C22       -11.2954    0.0103   60.2704 C.3     1  ZINC000163855860    0.1200
     23 C23       -11.9024    0.8561   61.4008 C.3     1  ZINC000163855860   -0.0600
     24 C24       -10.8505    1.0869   62.4648 C.2     1  ZINC000163855860   -0.1700
     25 C25        -9.7240    0.3637   62.6095 C.2     1  ZINC000163855860   -0.1300
     26 C26        -8.9268    0.7728   63.6739 C.2     1  ZINC000163855860   -0.1200
     27 C27        -9.3875    1.8041   64.3747 C.2     1  ZINC000163855860   -0.2100
     28 S28       -10.9204    2.3367   63.7008 S.3     1  ZINC000163855860    0.1100
     29 C29        -9.3663   -0.7942   61.6848 C.3     1  ZINC000163855860    0.1700
     30 H30       -10.3700   -1.9230   57.5889 H       1  ZINC000163855860    0.0700
     31 H31        -9.9060   -3.3292   58.5767 H       1  ZINC000163855860    0.0900
     32 H32       -10.6514   -3.5712   56.9785 H       1  ZINC000163855860    0.0700
     33 H33       -12.9617   -4.4002   56.0611 H       1  ZINC000163855860    0.4100
     34 H34       -13.3624   -2.0393   53.4486 H       1  ZINC000163855860    0.1100
     35 H35       -13.1291   -3.7661   53.8116 H       1  ZINC000163855860    0.1100
     36 H36       -12.0447   -2.5492   51.5692 H       1  ZINC000163855860    0.0800
     37 H37       -10.8643   -3.8637   51.8639 H       1  ZINC000163855860    0.1200
     38 H38       -10.1114   -1.1609   54.6823 H       1  ZINC000163855860    0.1200
     39 H39       -11.6191   -0.5155   53.9645 H       1  ZINC000163855860    0.1200
     40 H40       -15.2599   -3.4336   57.7345 H       1  ZINC000163855860    0.1500
     41 H41       -15.5015   -2.9631   60.1353 H       1  ZINC000163855860    0.1300
     42 H42       -13.5193   -2.4763   61.5057 H       1  ZINC000163855860    0.1300
     43 H43       -10.6163    0.6222   59.6767 H       1  ZINC000163855860    0.0800
     44 H44       -12.0903   -0.3806   59.6352 H       1  ZINC000163855860    0.1000
     45 H45       -12.7521    0.3301   61.8362 H       1  ZINC000163855860    0.0900
     46 H46       -12.2332    1.8148   61.0012 H       1  ZINC000163855860    0.0900
     47 H47        -7.9943    0.2841   63.9151 H       1  ZINC000163855860    0.1400
     48 H48        -8.8947    2.2473   65.2274 H       1  ZINC000163855860    0.1700
     49 H49        -9.0836   -1.6652   62.2761 H       1  ZINC000163855860    0.1000
     50 H50        -8.5408   -0.5065   61.0337 H       1  ZINC000163855860    0.0900
@<TRIPOS>BOND
     1     1     2    1
     2     1    30    1
     3     1    31    1
     4     1    32    1
     5     2    18   ar
     6     2     3   ar
     7     3     4    1
     8     3    15   ar
     9     4     5   am
    10     4    33    1
    11     5     6    2
    12     5     7    1
    13     7     8    1
    14     7    34    1
    15     7    35    1
    16     8     9    1
    17     8    14    1
    18     8    10    1
    19    10    11    1
    20    10    36    1
    21    10    37    1
    22    11    12    1
    23    12    13    2
    24    12    14    1
    25    14    38    1
    26    14    39    1
    27    15    16   ar
    28    15    40    1
    29    16    17   ar
    30    16    41    1
    31    17    18   ar
    32    17    42    1
    33    18    19    1
    34    19    20    2
    35    19    21   am
    36    21    29    1
    37    21    22    1
    38    22    23    1
    39    22    43    1
    40    22    44    1
    41    23    24    1
    42    23    45    1
    43    23    46    1
    44    24    28    1
    45    24    25    2
    46    25    26    1
    47    25    29    1
    48    26    27    2
    49    26    47    1
    50    27    28    1
    51    27    48    1
    52    29    49    1
    53    29    50    1
@<TRIPOS>SUBSTRUCTURE
     1 ZINC000163855860        1 TEMP              0 ****  ****    0 ROOT


##########                                Name:    ZINC001082278299
##########                DOCK_Rotatable_Bonds:                   9
##########                         Heavy_Atoms:                  25
##########                    Molecular_Weight:              346.47
##########                DOCK_Rotatable_Bonds:                   9
##########                       Formal_Charge:           0.0200001
##########                     HBond_Acceptors:                   5
##########                        HBond_Donors:                   1
##########                         Heavy_Atoms:                  25
##########                          Grid_Score:          -32.411678
##########                     Grid_vdw_energy:          -30.992392
##########                      Grid_es_energy:           -1.419286
##########           Internal_energy_repulsive:           82.855507

@<TRIPOS>MOLECULE
ZINC001082278299
 55 57 1 0 0
SMALL
USER_CHARGES


@<TRIPOS>ATOM
      1 C1         -8.7578   -0.4481   64.2554 C.3     1  ZINC001082278299   -0.1300
      2 C2         -9.3270   -0.4912   62.8608 C.2     1  ZINC001082278299    0.0000
      3 C3         -8.9447   -1.4442   62.0156 C.2     1  ZINC001082278299   -0.2300
      4 C4         -9.5003   -1.4863   60.6543 C.2     1  ZINC001082278299    0.5400
      5 O5        -10.4300   -2.2278   60.3996 O.2     1  ZINC001082278299   -0.5300
      6 N6         -8.9791   -0.7031   59.6891 N.am    1  ZINC001082278299   -0.7400
      7 C7         -9.5337   -0.7438   58.3338 C.3     1  ZINC001082278299    0.1300
      8 C8         -9.2247    0.5720   57.6167 C.3     1  ZINC001082278299    0.1400
      9 H9         -8.1475    0.6708   57.4825 H       1  ZINC001082278299    0.0800
     10 C10        -9.7483    1.7461   58.4498 C.3     1  ZINC001082278299   -0.1300
     11 C11        -9.5617    3.0466   57.6649 C.3     1  ZINC001082278299   -0.1200
     12 C12       -10.3664    2.9799   56.3650 C.3     1  ZINC001082278299   -0.1400
     13 C13        -9.8498    1.8198   55.5083 C.3     1  ZINC001082278299    0.1100
     14 N14        -9.8877    0.5859   56.3056 N.am    1  ZINC001082278299   -0.6100
     15 C15       -10.5228   -0.5100   55.8451 C.2     1  ZINC001082278299    0.5100
     16 O16       -10.5469   -1.5223   56.5126 O.2     1  ZINC001082278299   -0.5100
     17 C17       -11.2030   -0.4777   54.5007 C.3     1  ZINC001082278299   -0.1100
     18 C18       -11.7261   -1.8515   54.1692 C.2     1  ZINC001082278299   -0.0900
     19 C19       -10.9600   -2.6702   53.5116 C.2     1  ZINC001082278299   -0.1800
     20 C20       -11.3903   -4.0566   53.1248 C.3     1  ZINC001082278299    0.0900
     21 O21       -12.5462   -4.4394   53.8727 O.3     1  ZINC001082278299   -0.3800
     22 C22       -13.5879   -3.4560   53.8370 C.3     1  ZINC001082278299    0.0600
     23 C23       -13.1123   -2.2250   54.6170 C.3     1  ZINC001082278299   -0.1100
     24 C24       -10.3294    0.5458   62.4237 C.3     1  ZINC001082278299   -0.1200
     25 C25       -11.7893    0.1067   62.2942 C.3     1  ZINC001082278299   -0.1900
     26 C26       -11.3616    1.0088   63.4537 C.3     1  ZINC001082278299   -0.1500
     27 H27        -7.8551    0.1628   64.2608 H       1  ZINC001082278299    0.0800
     28 H28        -9.4927   -0.0162   64.9347 H       1  ZINC001082278299    0.0800
     29 H29        -8.5138   -1.4598   64.5797 H       1  ZINC001082278299    0.0700
     30 H30        -8.2263   -2.1874   62.3289 H       1  ZINC001082278299    0.1300
     31 H31        -8.2368   -0.1127   59.8920 H       1  ZINC001082278299    0.3900
     32 H32        -9.0867   -1.5714   57.7829 H       1  ZINC001082278299    0.0900
     33 H33       -10.6133   -0.8838   58.3870 H       1  ZINC001082278299    0.0800
     34 H34       -10.8072    1.5980   58.6620 H       1  ZINC001082278299    0.0700
     35 H35        -9.1937    1.8036   59.3864 H       1  ZINC001082278299    0.0800
     36 H36        -9.9109    3.8865   58.2656 H       1  ZINC001082278299    0.0700
     37 H37        -8.5055    3.1816   57.4316 H       1  ZINC001082278299    0.0700
     38 H38       -11.4195    2.8203   56.5968 H       1  ZINC001082278299    0.0700
     39 H39       -10.2518    3.9156   55.8177 H       1  ZINC001082278299    0.0800
     40 H40       -10.4823    1.7057   54.6279 H       1  ZINC001082278299    0.0900
     41 H41        -8.8240    2.0218   55.1999 H       1  ZINC001082278299    0.0700
     42 H42       -12.0318    0.2296   54.5299 H       1  ZINC001082278299    0.1000
     43 H43       -10.4875   -0.1677   53.7390 H       1  ZINC001082278299    0.1000
     44 H44        -9.9711   -2.3391   53.2306 H       1  ZINC001082278299    0.1100
     45 H45       -11.6250   -4.0784   52.0605 H       1  ZINC001082278299    0.0600
     46 H46       -10.5800   -4.7565   53.3284 H       1  ZINC001082278299    0.1000
     47 H47       -13.7985   -3.1817   52.8033 H       1  ZINC001082278299    0.0600
     48 H48       -14.4883   -3.8580   54.3014 H       1  ZINC001082278299    0.1000
     49 H49       -13.1074   -2.4506   55.6834 H       1  ZINC001082278299    0.0800
     50 H50       -13.7876   -1.3910   54.4259 H       1  ZINC001082278299    0.0800
     51 H51        -9.9610    1.2855   61.7128 H       1  ZINC001082278299    0.1300
     52 H52       -12.3817    0.5573   61.4980 H       1  ZINC001082278299    0.1000
     53 H53       -12.0247   -0.9323   62.5253 H       1  ZINC001082278299    0.1000
     54 H54       -11.3157    0.5632   64.4475 H       1  ZINC001082278299    0.0900
     55 H55       -11.6727    2.0528   63.4203 H       1  ZINC001082278299    0.1000
@<TRIPOS>BOND
     1     1     2    1
     2     1    27    1
     3     1    28    1
     4     1    29    1
     5     2     3    2
     6     2    24    1
     7     3     4    1
     8     3    30    1
     9     4     5    2
    10     4     6   am
    11     6     7    1
    12     6    31    1
    13     7     8    1
    14     7    32    1
    15     7    33    1
    16     8     9    1
    17     8    14    1
    18     8    10    1
    19    10    11    1
    20    10    34    1
    21    10    35    1
    22    11    12    1
    23    11    36    1
    24    11    37    1
    25    12    13    1
    26    12    38    1
    27    12    39    1
    28    13    14    1
    29    13    40    1
    30    13    41    1
    31    14    15   am
    32    15    16    2
    33    15    17    1
    34    17    18    1
    35    17    42    1
    36    17    43    1
    37    18    23    1
    38    18    19    2
    39    19    20    1
    40    19    44    1
    41    20    21    1
    42    20    45    1
    43    20    46    1
    44    21    22    1
    45    22    23    1
    46    22    47    1
    47    22    48    1
    48    23    49    1
    49    23    50    1
    50    24    26    1
    51    24    25    1
    52    24    51    1
    53    25    26    1
    54    25    52    1
    55    25    53    1
    56    26    54    1
    57    26    55    1
@<TRIPOS>SUBSTRUCTURE
     1 ZINC001082278299        1 TEMP              0 ****  ****    0 ROOT


##########                                Name:    ZINC000463474628
##########                DOCK_Rotatable_Bonds:                   5
##########                         Heavy_Atoms:                  25
##########                    Molecular_Weight:              407.35
##########                DOCK_Rotatable_Bonds:                   5
##########                       Formal_Charge:           0.0200004
##########                     HBond_Acceptors:                   4
##########                        HBond_Donors:                   0
##########                         Heavy_Atoms:                  25
##########                          Grid_Score:          -32.396225
##########                     Grid_vdw_energy:          -32.071587
##########                      Grid_es_energy:           -0.324636
##########           Internal_energy_repulsive:           26.212961

@<TRIPOS>MOLECULE
ZINC000463474628
 52 54 1 0 0
SMALL
USER_CHARGES


@<TRIPOS>ATOM
      1 C1        -11.5529   -2.2248   60.4366 C.3     1  ZINC000463474628   -0.1400
      2 C2        -10.2559   -2.9556   60.0836 C.3     1  ZINC000463474628   -0.1300
      3 C3         -9.6100   -2.2895   58.8670 C.3     1  ZINC000463474628    0.1400
      4 H4         -8.7109   -2.8347   58.5799 H       1  ZINC000463474628    0.0800
      5 C5         -9.2526   -0.8253   59.1984 C.3     1  ZINC000463474628   -0.1300
      6 C6         -9.5861   -0.0792   57.8796 C.3     1  ZINC000463474628   -0.1300
      7 C7        -10.8303   -0.8595   57.3868 C.3     1  ZINC000463474628    0.0900
      8 N8        -10.5608   -2.2671   57.7457 N.am    1  ZINC000463474628   -0.6100
      9 C9        -11.0986   -3.3475   57.1460 C.2     1  ZINC000463474628    0.5300
     10 O10       -10.8042   -4.4612   57.5254 O.2     1  ZINC000463474628   -0.5100
     11 C11       -12.0660   -3.1718   56.0039 C.3     1  ZINC000463474628   -0.1200
     12 H12       -12.5935   -2.2246   56.1163 H       1  ZINC000463474628    0.1000
     13 C13       -13.0755   -4.3221   56.0079 C.3     1  ZINC000463474628   -0.1000
     14 C14       -14.0782   -4.1271   54.8684 C.3     1  ZINC000463474628   -0.1300
     15 C15       -13.3333   -4.1423   53.5298 C.3     1  ZINC000463474628    0.0900
     16 N16       -12.2644   -3.1351   53.5720 N.am    1  ZINC000463474628   -0.6000
     17 C17       -12.1719   -2.1913   52.6143 C.2     1  ZINC000463474628    0.5700
     18 O18       -12.9775   -2.1681   51.7042 O.2     1  ZINC000463474628   -0.5200
     19 C19       -11.0911   -1.1849   52.6705 C.ar    1  ZINC000463474628   -0.1200
     20 C20        -9.7711   -1.5591   52.4140 C.ar    1  ZINC000463474628   -0.0800
     21 C21        -8.7667   -0.6153   52.4680 C.ar    1  ZINC000463474628   -0.1000
     22 C22        -9.0657    0.7010   52.7760 C.ar    1  ZINC000463474628   -0.0700
     23 Br23       -7.6829    1.9888   52.8474 Br      1  ZINC000463474628   -0.0400
     24 C24       -10.3735    1.0785   53.0315 C.ar    1  ZINC000463474628   -0.0900
     25 C25       -11.3870    0.1453   52.9749 C.ar    1  ZINC000463474628   -0.0300
     26 C26       -12.8095    0.5576   53.2533 C.3     1  ZINC000463474628   -0.1300
     27 C27       -11.2982   -3.1753   54.6783 C.3     1  ZINC000463474628    0.1200
     28 H28       -11.3231   -1.3501   61.0449 H       1  ZINC000463474628    0.0700
     29 H29       -12.0528   -1.9092   59.5208 H       1  ZINC000463474628    0.0600
     30 H30       -12.2067   -2.8944   60.9953 H       1  ZINC000463474628    0.0300
     31 H31        -9.5706   -2.9088   60.9300 H       1  ZINC000463474628    0.0600
     32 H32       -10.4772   -3.9975   59.8526 H       1  ZINC000463474628    0.0700
     33 H33        -9.8682   -0.4541   60.0178 H       1  ZINC000463474628    0.0800
     34 H34        -8.1933   -0.7315   59.4373 H       1  ZINC000463474628    0.0800
     35 H35        -9.8312    0.9652   58.0727 H       1  ZINC000463474628    0.0900
     36 H36        -8.7660   -0.1609   57.1663 H       1  ZINC000463474628    0.0800
     37 H37       -11.7270   -0.5026   57.8932 H       1  ZINC000463474628    0.0700
     38 H38       -10.9379   -0.7589   56.3068 H       1  ZINC000463474628    0.0800
     39 H39       -12.5497   -5.2670   55.8713 H       1  ZINC000463474628    0.0800
     40 H40       -13.6060   -4.3363   56.9599 H       1  ZINC000463474628    0.0700
     41 H41       -14.8107   -4.9341   54.8862 H       1  ZINC000463474628    0.0800
     42 H42       -14.5867   -3.1708   54.9909 H       1  ZINC000463474628    0.0700
     43 H43       -12.8997   -5.1285   53.3641 H       1  ZINC000463474628    0.0800
     44 H44       -14.0268   -3.9054   52.7229 H       1  ZINC000463474628    0.1000
     45 H45        -9.5365   -2.5857   52.1740 H       1  ZINC000463474628    0.1400
     46 H46        -7.7449   -0.9037   52.2701 H       1  ZINC000463474628    0.1400
     47 H47       -10.6006    2.1067   53.2716 H       1  ZINC000463474628    0.1400
     48 H48       -13.3158    0.7741   52.3126 H       1  ZINC000463474628    0.0700
     49 H49       -13.3284   -0.2514   53.7674 H       1  ZINC000463474628    0.0900
     50 H50       -12.8133    1.4486   53.8812 H       1  ZINC000463474628    0.0700
     51 H51       -10.6492   -2.3010   54.6287 H       1  ZINC000463474628    0.1000
     52 H52       -10.6984   -4.0827   54.6067 H       1  ZINC000463474628    0.0800
@<TRIPOS>BOND
     1     1     2    1
     2     1    28    1
     3     1    29    1
     4     1    30    1
     5     2     3    1
     6     2    31    1
     7     2    32    1
     8     3     4    1
     9     3     8    1
    10     3     5    1
    11     5     6    1
    12     5    33    1
    13     5    34    1
    14     6     7    1
    15     6    35    1
    16     6    36    1
    17     7     8    1
    18     7    37    1
    19     7    38    1
    20     8     9   am
    21     9    10    2
    22     9    11    1
    23    11    12    1
    24    11    27    1
    25    11    13    1
    26    13    14    1
    27    13    39    1
    28    13    40    1
    29    14    15    1
    30    14    41    1
    31    14    42    1
    32    15    16    1
    33    15    43    1
    34    15    44    1
    35    16    17   am
    36    16    27    1
    37    17    18    2
    38    17    19    1
    39    19    25   ar
    40    19    20   ar
    41    20    21   ar
    42    20    45    1
    43    21    22   ar
    44    21    46    1
    45    22    23    1
    46    22    24   ar
    47    24    25   ar
    48    24    47    1
    49    25    26    1
    50    26    48    1
    51    26    49    1
    52    26    50    1
    53    27    51    1
    54    27    52    1
@<TRIPOS>SUBSTRUCTURE
     1 ZINC000463474628        1 TEMP              0 ****  ****    0 ROOT


##########                                Name:    ZINC000938043669
##########                DOCK_Rotatable_Bonds:                   7
##########                         Heavy_Atoms:                  27
##########                    Molecular_Weight:             372.439
##########                DOCK_Rotatable_Bonds:                   7
##########                       Formal_Charge:           0.0499999
##########                     HBond_Acceptors:                   6
##########                        HBond_Donors:                   1
##########                         Heavy_Atoms:                  27
##########                          Grid_Score:          -32.353397
##########                     Grid_vdw_energy:          -31.918467
##########                      Grid_es_energy:           -0.434932
##########           Internal_energy_repulsive:           40.330471

@<TRIPOS>MOLECULE
ZINC000938043669
 52 55 1 0 0
SMALL
USER_CHARGES


@<TRIPOS>ATOM
      1 O1        -10.3557   -3.1148   52.3185 O.2     1  ZINC000938043669   -0.5000
      2 C2        -10.4424   -2.1952   53.1046 C.2     1  ZINC000938043669    0.5300
      3 C3         -9.7045   -0.9077   52.8423 C.3     1  ZINC000938043669    0.0500
      4 O4         -8.6093   -1.1578   51.9590 O.3     1  ZINC000938043669   -0.2800
      5 C5         -7.8137   -0.1002   51.6475 C.ar    1  ZINC000938043669    0.0900
      6 C6         -6.7186   -0.2762   50.8162 C.ar    1  ZINC000938043669   -0.1800
      7 C7         -5.9113    0.8004   50.5003 C.ar    1  ZINC000938043669   -0.0900
      8 C8         -6.1944    2.0527   51.0123 C.ar    1  ZINC000938043669   -0.1300
      9 C9         -7.2857    2.2327   51.8425 C.ar    1  ZINC000938043669   -0.1100
     10 C10        -8.1002    1.1603   52.1573 C.ar    1  ZINC000938043669    0.0800
     11 F11        -9.1664    1.3358   52.9681 F       1  ZINC000938043669   -0.1300
     12 N12       -11.2031   -2.3228   54.2098 N.am    1  ZINC000938043669   -0.6200
     13 C13       -11.9738   -3.5167   54.5865 C.3     1  ZINC000938043669    0.1000
     14 C14       -12.6612   -3.2120   55.9341 C.3     1  ZINC000938043669   -0.1400
     15 C15       -11.7868   -2.0721   56.5204 C.3     1  ZINC000938043669    0.1300
     16 H16       -10.9026   -2.4734   57.0155 H       1  ZINC000938043669    0.1100
     17 N17       -12.5631   -1.2332   57.4368 N.am    1  ZINC000938043669   -0.7200
     18 C18       -12.6604   -1.5685   58.7385 C.2     1  ZINC000938043669    0.5200
     19 O19       -12.1042   -2.5639   59.1516 O.2     1  ZINC000938043669   -0.5200
     20 C20       -13.4604   -0.7065   59.6808 C.3     1  ZINC000938043669   -0.1000
     21 H21       -13.5830    0.2867   59.2489 H       1  ZINC000938043669    0.1000
     22 C22       -12.7243   -0.5936   61.0178 C.3     1  ZINC000938043669   -0.1100
     23 C23       -13.6096   -1.1508   62.1399 C.3     1  ZINC000938043669   -0.0600
     24 H24       -13.0840   -1.1275   63.0945 H       1  ZINC000938043669    0.0800
     25 C25       -13.9912   -2.5761   61.7686 C.2     1  ZINC000938043669   -0.1800
     26 C26       -14.6315   -2.6742   60.6059 C.2     1  ZINC000938043669   -0.1300
     27 C27       -14.8395   -1.3395   59.9065 C.3     1  ZINC000938043669   -0.0400
     28 H28       -15.3717   -1.4753   58.9650 H       1  ZINC000938043669    0.0900
     29 C29       -15.6360   -0.4345   60.8564 C.3     1  ZINC000938043669   -0.1200
     30 C30       -14.8924   -0.3103   62.2044 C.3     1  ZINC000938043669   -0.1100
     31 C31       -11.3952   -1.2902   55.2444 C.3     1  ZINC000938043669    0.1000
     32 H32       -10.3825   -0.1868   52.3852 H       1  ZINC000938043669    0.1000
     33 H33        -9.3280   -0.5064   53.7832 H       1  ZINC000938043669    0.1000
     34 H34        -6.4960   -1.2542   50.4157 H       1  ZINC000938043669    0.1400
     35 H35        -5.0579    0.6629   49.8528 H       1  ZINC000938043669    0.1300
     36 H36        -5.5619    2.8921   50.7638 H       1  ZINC000938043669    0.1400
     37 H37        -7.5045    3.2121   52.2415 H       1  ZINC000938043669    0.1500
     38 H38       -12.7258   -3.7277   53.8261 H       1  ZINC000938043669    0.0800
     39 H39       -11.3049   -4.3703   54.6962 H       1  ZINC000938043669    0.0800
     40 H40       -13.6845   -2.8710   55.7768 H       1  ZINC000938043669    0.0900
     41 H41       -12.6408   -4.0869   56.5840 H       1  ZINC000938043669    0.1000
     42 H42       -13.0069   -0.4363   57.1067 H       1  ZINC000938043669    0.4000
     43 H43       -11.7964   -1.1636   60.9706 H       1  ZINC000938043669    0.0700
     44 H44       -12.4974    0.4531   61.2201 H       1  ZINC000938043669    0.0800
     45 H45       -13.7638   -3.4291   62.3907 H       1  ZINC000938043669    0.1200
     46 H46       -14.9712   -3.6142   60.1967 H       1  ZINC000938043669    0.1200
     47 H47       -15.7383    0.5562   60.4136 H       1  ZINC000938043669    0.0700
     48 H48       -16.6250   -0.8622   61.0213 H       1  ZINC000938043669    0.0700
     49 H49       -15.5294   -0.6838   63.0062 H       1  ZINC000938043669    0.0700
     50 H50       -14.6505    0.7360   62.3906 H       1  ZINC000938043669    0.0700
     51 H51       -10.4712   -0.7357   55.4080 H       1  ZINC000938043669    0.0900
     52 H52       -12.1982   -0.6133   54.9529 H       1  ZINC000938043669    0.0700
@<TRIPOS>BOND
     1     1     2    2
     2     2     3    1
     3     2    12   am
     4     3     4    1
     5     3    32    1
     6     3    33    1
     7     4     5    1
     8     5    10   ar
     9     5     6   ar
    10     6     7   ar
    11     6    34    1
    12     7     8   ar
    13     7    35    1
    14     8     9   ar
    15     8    36    1
    16     9    10   ar
    17     9    37    1
    18    10    11    1
    19    12    31    1
    20    12    13    1
    21    13    14    1
    22    13    38    1
    23    13    39    1
    24    14    15    1
    25    14    40    1
    26    14    41    1
    27    15    16    1
    28    15    17    1
    29    15    31    1
    30    17    18   am
    31    17    42    1
    32    18    19    2
    33    18    20    1
    34    20    21    1
    35    20    27    1
    36    20    22    1
    37    22    23    1
    38    22    43    1
    39    22    44    1
    40    23    24    1
    41    23    30    1
    42    23    25    1
    43    25    26    2
    44    25    45    1
    45    26    27    1
    46    26    46    1
    47    27    28    1
    48    27    29    1
    49    29    30    1
    50    29    47    1
    51    29    48    1
    52    30    49    1
    53    30    50    1
    54    31    51    1
    55    31    52    1
@<TRIPOS>SUBSTRUCTURE
     1 ZINC000938043669        1 TEMP              0 ****  ****    0 ROOT


##########                                Name:    ZINC000277085192
##########                DOCK_Rotatable_Bonds:                   4
##########                         Heavy_Atoms:                  23
##########                    Molecular_Weight:             335.747
##########                DOCK_Rotatable_Bonds:                   4
##########                       Formal_Charge:         5.96046e-08
##########                     HBond_Acceptors:                   8
##########                        HBond_Donors:                   2
##########                         Heavy_Atoms:                  23
##########                          Grid_Score:          -32.330399
##########                     Grid_vdw_energy:          -30.328747
##########                      Grid_es_energy:           -2.001653
##########           Internal_energy_repulsive:            9.311468

@<TRIPOS>MOLECULE
ZINC000277085192
 37 39 1 0 0
SMALL
USER_CHARGES


@<TRIPOS>ATOM
      1 O1        -10.9931   -2.5053   60.7381 O.2     1  ZINC000277085192   -0.5000
      2 C2         -9.8948   -2.6464   60.2430 C.2     1  ZINC000277085192    0.5000
      3 C3         -9.6508   -3.7580   59.2552 C.3     1  ZINC000277085192    0.1100
      4 N4        -10.7519   -3.8041   58.2900 N.am    1  ZINC000277085192   -0.6000
      5 C5        -11.4766   -2.5749   57.9625 C.3     1  ZINC000277085192    0.1100
      6 C6        -11.8673   -2.5903   56.4829 C.3     1  ZINC000277085192   -0.1600
      7 C7        -12.4644   -3.9325   56.1420 C.2     1  ZINC000277085192    0.5200
      8 O8        -13.3559   -4.0096   55.3240 O.2     1  ZINC000277085192   -0.5000
      9 N9        -12.0069   -5.0446   56.7458 N.am    1  ZINC000277085192   -0.6700
     10 C10       -11.0788   -4.9724   57.7139 C.2     1  ZINC000277085192    0.7200
     11 O11       -10.5273   -5.9902   58.0839 O.2     1  ZINC000277085192   -0.5500
     12 N12        -8.8943   -1.8055   60.5719 N.am    1  ZINC000277085192   -0.6700
     13 C13        -9.1210   -0.7726   61.4896 C.ar    1  ZINC000277085192    0.1400
     14 C14        -8.7299   -0.9207   62.8074 C.ar    1  ZINC000277085192   -0.0400
     15 C15        -8.9574    0.1141   63.7280 C.ar    1  ZINC000277085192   -0.1700
     16 C16        -9.5789    1.2877   63.3001 C.ar    1  ZINC000277085192   -0.0500
     17 C17        -9.9650    1.4243   61.9800 C.ar    1  ZINC000277085192   -0.0900
     18 C18        -9.7349    0.4052   61.0740 C.ar    1  ZINC000277085192   -0.0300
     19 Cl19      -10.2249    0.5898   59.4189 Cl      1  ZINC000277085192   -0.0500
     20 C20        -9.7112    2.2429   64.4624 C.3     1  ZINC000277085192   -0.0800
     21 C21        -9.0983    1.5317   65.6766 C.3     1  ZINC000277085192   -0.1700
     22 C22        -8.6360    0.1901   65.1623 C.2     1  ZINC000277085192    0.4100
     23 O23        -8.0937   -0.6747   65.8170 O.2     1  ZINC000277085192   -0.4300
     24 H24        -8.7136   -3.5773   58.7289 H       1  ZINC000277085192    0.1300
     25 H25        -9.5923   -4.7087   59.7853 H       1  ZINC000277085192    0.1200
     26 H26       -12.3759   -2.5093   58.5749 H       1  ZINC000277085192    0.0800
     27 H27       -10.8388   -1.7135   58.1608 H       1  ZINC000277085192    0.1000
     28 H28       -12.6002   -1.8065   56.2915 H       1  ZINC000277085192    0.1300
     29 H29       -10.9819   -2.4195   55.8706 H       1  ZINC000277085192    0.1200
     30 H30       -12.3498   -5.9107   56.4754 H       1  ZINC000277085192    0.4300
     31 H31        -8.0171   -1.9159   60.1730 H       1  ZINC000277085192    0.4200
     32 H32        -8.2496   -1.8331   63.1286 H       1  ZINC000277085192    0.1500
     33 H33       -10.4461    2.3343   61.6530 H       1  ZINC000277085192    0.1500
     34 H34        -9.1667    3.1639   64.2538 H       1  ZINC000277085192    0.1000
     35 H35       -10.7624    2.4628   64.6484 H       1  ZINC000277085192    0.1000
     36 H36        -8.2518    2.1013   66.0602 H       1  ZINC000277085192    0.1100
     37 H37        -9.8494    1.3993   66.4554 H       1  ZINC000277085192    0.1100
@<TRIPOS>BOND
     1     1     2    2
     2     2     3    1
     3     2    12   am
     4     3     4    1
     5     3    24    1
     6     3    25    1
     7     4    10   am
     8     4     5    1
     9     5     6    1
    10     5    26    1
    11     5    27    1
    12     6     7    1
    13     6    28    1
    14     6    29    1
    15     7     8    2
    16     7     9   am
    17     9    10   am
    18     9    30    1
    19    10    11    2
    20    12    13    1
    21    12    31    1
    22    13    18   ar
    23    13    14   ar
    24    14    15   ar
    25    14    32    1
    26    15    22    1
    27    15    16   ar
    28    16    17   ar
    29    16    20    1
    30    17    18   ar
    31    17    33    1
    32    18    19    1
    33    20    21    1
    34    20    34    1
    35    20    35    1
    36    21    22    1
    37    21    36    1
    38    21    37    1
    39    22    23    2
@<TRIPOS>SUBSTRUCTURE
     1 ZINC000277085192        1 TEMP              0 ****  ****    0 ROOT


##########                                Name:    ZINC000451019064
##########                DOCK_Rotatable_Bonds:                   8
##########                         Heavy_Atoms:                  23
##########                    Molecular_Weight:             346.534
##########                DOCK_Rotatable_Bonds:                   8
##########                       Formal_Charge:          -0.0200008
##########                     HBond_Acceptors:                   6
##########                        HBond_Donors:                   1
##########                         Heavy_Atoms:                  23
##########                          Grid_Score:          -32.322487
##########                     Grid_vdw_energy:          -32.348087
##########                      Grid_es_energy:            0.025599
##########           Internal_energy_repulsive:           12.714658

@<TRIPOS>MOLECULE
ZINC000451019064
 57 58 1 0 0
SMALL
USER_CHARGES


@<TRIPOS>ATOM
      1 C1         -9.3255    0.3456   63.8312 C.3     1  ZINC000451019064   -0.1500
      2 C2        -10.2888   -0.2069   62.7786 C.3     1  ZINC000451019064    0.0900
      3 H3        -10.9461   -0.9448   63.2384 H       1  ZINC000451019064    0.0700
      4 C4         -9.4903   -0.8658   61.6507 C.3     1  ZINC000451019064    0.0200
      5 N5        -10.4163   -1.3261   60.6058 N.3     1  ZINC000451019064   -0.5400
      6 C6         -9.6939   -2.0164   59.5290 C.3     1  ZINC000451019064    0.0600
      7 C7        -10.3147   -3.3962   59.3014 C.3     1  ZINC000451019064   -0.1300
      8 C8        -11.1284   -3.3820   58.0058 C.3     1  ZINC000451019064    0.1100
      9 N9        -11.6983   -4.7113   57.7726 N.am    1  ZINC000451019064   -1.1200
     10 S10       -13.1312   -4.8663   56.9568 S.o2    1  ZINC000451019064    2.6100
     11 O11       -13.3182   -6.2701   56.8407 O.2     1  ZINC000451019064   -0.9600
     12 O12       -14.0431   -4.0642   57.6946 O.2     1  ZINC000451019064   -0.9500
     13 C13       -12.8079   -4.1306   55.3305 C.3     1  ZINC000451019064   -0.6300
     14 C14       -13.3091   -2.6851   55.3158 C.3     1  ZINC000451019064   -0.1100
     15 C15       -12.5635   -1.8977   54.2366 C.3     1  ZINC000451019064   -0.0800
     16 C16       -11.1295   -1.6313   54.6986 C.3     1  ZINC000451019064   -0.1200
     17 C17       -10.3838   -0.8438   53.6193 C.3     1  ZINC000451019064   -0.1200
     18 C18       -10.3594   -1.6544   52.3219 C.3     1  ZINC000451019064   -0.1200
     19 C19       -11.7934   -1.9207   51.8598 C.3     1  ZINC000451019064   -0.1200
     20 C20       -12.5390   -2.7082   52.9391 C.3     1  ZINC000451019064   -0.1200
     21 C21       -11.2041   -0.2034   60.0764 C.3     1  ZINC000451019064    0.0200
     22 C22       -11.9854    0.4489   61.2201 C.3     1  ZINC000451019064    0.0900
     23 H23       -12.6926   -0.2697   61.6341 H       1  ZINC000451019064    0.0700
     24 C24       -12.7455    1.6666   60.6904 C.3     1  ZINC000451019064   -0.1500
     25 O25       -11.0726    0.8617   62.2409 O.3     1  ZINC000451019064   -0.3800
     26 H26        -9.8945    0.8160   64.6331 H       1  ZINC000451019064    0.0700
     27 H27        -8.7274   -0.4689   64.2394 H       1  ZINC000451019064    0.0700
     28 H28        -8.6685    1.0835   63.3707 H       1  ZINC000451019064    0.0600
     29 H29        -8.7940   -0.1421   61.2268 H       1  ZINC000451019064    0.0400
     30 H30        -8.9359   -1.7168   62.0463 H       1  ZINC000451019064    0.0900
     31 H31        -9.7630   -1.4313   58.6120 H       1  ZINC000451019064    0.0400
     32 H32        -8.6468   -2.1308   59.8091 H       1  ZINC000451019064    0.0800
     33 H33        -9.5238   -4.1424   59.2256 H       1  ZINC000451019064    0.0800
     34 H34       -10.9682   -3.6431   60.1382 H       1  ZINC000451019064    0.0800
     35 H35       -11.9329   -2.6514   58.0901 H       1  ZINC000451019064    0.0800
     36 H36       -10.4795   -3.1135   57.1723 H       1  ZINC000451019064    0.0700
     37 H37       -11.2365   -5.5006   58.0959 H       1  ZINC000451019064    0.4200
     38 H38       -11.7363   -4.1457   55.1313 H       1  ZINC000451019064    0.1300
     39 H39       -13.3281   -4.7034   54.5627 H       1  ZINC000451019064    0.1400
     40 H40       -14.3778   -2.6733   55.1014 H       1  ZINC000451019064    0.0800
     41 H41       -13.1288   -2.2282   56.2889 H       1  ZINC000451019064    0.0800
     42 H42       -13.0714   -0.9490   54.0628 H       1  ZINC000451019064    0.0800
     43 H43       -11.1469   -1.0539   55.6229 H       1  ZINC000451019064    0.0600
     44 H44       -10.6217   -2.5800   54.8725 H       1  ZINC000451019064    0.0700
     45 H45       -10.8917    0.1048   53.4456 H       1  ZINC000451019064    0.0600
     46 H46        -9.3622   -0.6541   53.9485 H       1  ZINC000451019064    0.0600
     47 H47        -9.8281   -1.0934   51.5530 H       1  ZINC000451019064    0.0600
     48 H48        -9.8515   -2.6030   52.4957 H       1  ZINC000451019064    0.0600
     49 H49       -12.3013   -0.9721   51.6860 H       1  ZINC000451019064    0.0600
     50 H50       -11.7760   -2.4982   50.9355 H       1  ZINC000451019064    0.0600
     51 H51       -12.0312   -3.6569   53.1129 H       1  ZINC000451019064    0.0700
     52 H52       -13.5607   -2.8980   52.6099 H       1  ZINC000451019064    0.0600
     53 H53       -10.5352    0.5309   59.6275 H       1  ZINC000451019064    0.0400
     54 H54       -11.9007   -0.5708   59.3229 H       1  ZINC000451019064    0.0900
     55 H55       -13.4388    1.3511   59.9107 H       1  ZINC000451019064    0.0700
     56 H56       -13.3015    2.1305   61.5050 H       1  ZINC000451019064    0.0700
     57 H57       -12.0376    2.3855   60.2779 H       1  ZINC000451019064    0.0600
@<TRIPOS>BOND
     1     1     2    1
     2     1    26    1
     3     1    27    1
     4     1    28    1
     5     2     3    1
     6     2    25    1
     7     2     4    1
     8     4     5    1
     9     4    29    1
    10     4    30    1
    11     5     6    1
    12     5    21    1
    13     6     7    1
    14     6    31    1
    15     6    32    1
    16     7     8    1
    17     7    33    1
    18     7    34    1
    19     8     9    1
    20     8    35    1
    21     8    36    1
    22     9    10   am
    23     9    37    1
    24    10    11    2
    25    10    12    2
    26    10    13    1
    27    13    14    1
    28    13    38    1
    29    13    39    1
    30    14    15    1
    31    14    40    1
    32    14    41    1
    33    15    20    1
    34    15    16    1
    35    15    42    1
    36    16    17    1
    37    16    43    1
    38    16    44    1
    39    17    18    1
    40    17    45    1
    41    17    46    1
    42    18    19    1
    43    18    47    1
    44    18    48    1
    45    19    20    1
    46    19    49    1
    47    19    50    1
    48    20    51    1
    49    20    52    1
    50    21    22    1
    51    21    53    1
    52    21    54    1
    53    22    23    1
    54    22    24    1
    55    22    25    1
    56    24    55    1
    57    24    56    1
    58    24    57    1
@<TRIPOS>SUBSTRUCTURE
     1 ZINC000451019064        1 TEMP              0 ****  ****    0 ROOT


##########                                Name:    ZINC000632456679
##########                DOCK_Rotatable_Bonds:                   6
##########                         Heavy_Atoms:                  24
##########                    Molecular_Weight:              374.82
##########                DOCK_Rotatable_Bonds:                   6
##########                       Formal_Charge:          -0.0299999
##########                     HBond_Acceptors:                   9
##########                        HBond_Donors:                   1
##########                         Heavy_Atoms:                  24
##########                          Grid_Score:          -32.319824
##########                     Grid_vdw_energy:          -30.720526
##########                      Grid_es_energy:           -1.599299
##########           Internal_energy_repulsive:           39.212551

@<TRIPOS>MOLECULE
ZINC000632456679
 40 41 1 0 0
SMALL
USER_CHARGES


@<TRIPOS>ATOM
      1 C1        -13.9358   -1.6738   55.4421 C.3     1  ZINC000632456679   -0.1600
      2 C2        -12.6901   -2.5205   55.7113 C.3     1  ZINC000632456679    0.1900
      3 C3        -13.0225   -3.9987   55.4984 C.3     1  ZINC000632456679   -0.2000
      4 C4        -11.5740   -2.1052   54.7507 C.3     1  ZINC000632456679   -0.6300
      5 S5        -11.8184   -2.9233   53.1502 S.o2    1  ZINC000632456679    2.4100
      6 C6        -10.6825   -1.9989   52.0796 C.3     1  ZINC000632456679   -0.6600
      7 O7        -11.3558   -4.2630   53.2512 O.2     1  ZINC000632456679   -0.9300
      8 O8        -13.1492   -2.6796   52.7156 O.2     1  ZINC000632456679   -0.9300
      9 N9        -12.2480   -2.3134   57.0925 N.am    1  ZINC000632456679   -0.7200
     10 C10       -11.1470   -2.9425   57.5491 C.2     1  ZINC000632456679    0.6200
     11 O11       -10.5217   -3.6831   56.8152 O.2     1  ZINC000632456679   -0.5000
     12 C12       -10.7008   -2.7325   58.9395 C.2     1  ZINC000632456679   -0.0900
     13 C13       -10.7966   -1.5789   59.6650 C.2     1  ZINC000632456679   -0.1300
     14 C14       -10.2260   -1.9204   60.9220 C.2     1  ZINC000632456679    0.0400
     15 C15       -10.0723   -1.0316   62.1005 C.ar    1  ZINC000632456679   -0.0500
     16 C16        -8.9000   -1.0637   62.8524 C.ar    1  ZINC000632456679   -0.0600
     17 C17        -8.7615   -0.2353   63.9477 C.ar    1  ZINC000632456679   -0.1100
     18 C18        -9.7838    0.6266   64.3014 C.ar    1  ZINC000632456679   -0.0700
     19 C19       -10.9516    0.6648   63.5601 C.ar    1  ZINC000632456679   -0.0800
     20 Cl20      -12.2298    1.7495   64.0110 Cl      1  ZINC000632456679   -0.0400
     21 C21       -11.0992   -0.1566   62.4564 C.ar    1  ZINC000632456679    0.1400
     22 F22       -12.2390   -0.1196   61.7320 F       1  ZINC000632456679   -0.1100
     23 N23        -9.8639   -3.1756   60.8326 N.2     1  ZINC000632456679   -0.3200
     24 O24       -10.1234   -3.6415   59.7479 O.3     1  ZINC000632456679    0.1400
     25 H25       -14.7310   -1.9696   56.1264 H       1  ZINC000632456679    0.0900
     26 H26       -13.6990   -0.6207   55.5938 H       1  ZINC000632456679    0.0600
     27 H27       -14.2648   -1.8278   54.4145 H       1  ZINC000632456679    0.0700
     28 H28       -13.3514   -4.1528   54.4707 H       1  ZINC000632456679    0.0800
     29 H29       -12.1350   -4.6019   55.6899 H       1  ZINC000632456679    0.0800
     30 H30       -13.8177   -4.2945   56.1827 H       1  ZINC000632456679    0.0900
     31 H31       -11.5964   -1.0242   54.6133 H       1  ZINC000632456679    0.1600
     32 H32       -10.6097   -2.3989   55.1653 H       1  ZINC000632456679    0.1400
     33 H33        -9.6653   -2.0965   52.4589 H       1  ZINC000632456679    0.1300
     34 H34       -10.7324   -2.3979   51.0665 H       1  ZINC000632456679    0.1300
     35 H35       -10.9673   -0.9468   52.0700 H       1  ZINC000632456679    0.1300
     36 H36       -12.7476   -1.7234   57.6784 H       1  ZINC000632456679    0.4200
     37 H37       -11.2087   -0.6296   59.3560 H       1  ZINC000632456679    0.1900
     38 H38        -8.1005   -1.7362   62.5787 H       1  ZINC000632456679    0.1500
     39 H39        -7.8524   -0.2604   64.5302 H       1  ZINC000632456679    0.1500
     40 H40        -9.6702    1.2720   65.1599 H       1  ZINC000632456679    0.1500
@<TRIPOS>BOND
     1     1     2    1
     2     1    25    1
     3     1    26    1
     4     1    27    1
     5     2     3    1
     6     2     4    1
     7     2     9    1
     8     3    28    1
     9     3    29    1
    10     3    30    1
    11     4     5    1
    12     4    31    1
    13     4    32    1
    14     5     6    1
    15     5     7    2
    16     5     8    2
    17     6    33    1
    18     6    34    1
    19     6    35    1
    20     9    10   am
    21     9    36    1
    22    10    11    2
    23    10    12    1
    24    12    24    1
    25    12    13    2
    26    13    14    1
    27    13    37    1
    28    14    15    1
    29    14    23    2
    30    15    21   ar
    31    15    16   ar
    32    16    17   ar
    33    16    38    1
    34    17    18   ar
    35    17    39    1
    36    18    19   ar
    37    18    40    1
    38    19    20    1
    39    19    21   ar
    40    21    22    1
    41    23    24    1
@<TRIPOS>SUBSTRUCTURE
     1 ZINC000632456679        1 TEMP              0 ****  ****    0 ROOT


##########                                Name:    ZINC000001174632
##########                DOCK_Rotatable_Bonds:                   6
##########                         Heavy_Atoms:                  29
##########                    Molecular_Weight:             385.419
##########                DOCK_Rotatable_Bonds:                   6
##########                       Formal_Charge:           0.0400005
##########                     HBond_Acceptors:                   5
##########                        HBond_Donors:                   1
##########                         Heavy_Atoms:                  29
##########                          Grid_Score:          -32.308144
##########                     Grid_vdw_energy:          -30.189758
##########                      Grid_es_energy:           -2.118383
##########           Internal_energy_repulsive:           19.341490

@<TRIPOS>MOLECULE
ZINC000001174632
 48 51 1 0 0
SMALL
USER_CHARGES


@<TRIPOS>ATOM
      1 C1        -10.2540    2.9773   58.3259 C.3     1  ZINC000001174632    0.0400
      2 O2         -9.3819    1.8854   58.7199 O.3     1  ZINC000001174632   -0.3500
      3 C3         -9.4718    0.7437   58.0094 C.2     1  ZINC000001174632    0.5200
      4 O4         -8.5335   -0.0278   57.9781 O.2     1  ZINC000001174632   -0.5200
      5 C5        -10.7078    0.4310   57.2706 C.ar    1  ZINC000001174632   -0.2000
      6 C6        -10.7061    0.4118   55.8738 C.ar    1  ZINC000001174632   -0.0200
      7 C7        -11.8656    0.1181   55.1889 C.ar    1  ZINC000001174632   -0.1800
      8 C8        -13.0353   -0.1588   55.8782 C.ar    1  ZINC000001174632   -0.0300
      9 C9        -13.0538   -0.1435   57.2582 C.ar    1  ZINC000001174632   -0.1900
     10 C10       -11.8939    0.1446   57.9667 C.ar    1  ZINC000001174632    0.2600
     11 N11       -11.9097    0.1603   59.3551 N.pl3   1  ZINC000001174632   -0.6500
     12 C12       -11.0769   -0.6705   60.0597 C.2     1  ZINC000001174632    0.2300
     13 C13       -10.8257   -1.9953   59.7582 C.2     1  ZINC000001174632   -0.1800
     14 C14       -11.4070   -2.7517   58.6270 C.ar    1  ZINC000001174632   -0.0600
     15 C15       -12.7637   -3.0791   58.6278 C.ar    1  ZINC000001174632   -0.0600
     16 C16       -13.3016   -3.7842   57.5716 C.ar    1  ZINC000001174632   -0.1500
     17 C17       -12.4955   -4.1686   56.5089 C.ar    1  ZINC000001174632    0.1400
     18 O18       -13.0296   -4.8636   55.4697 O.3     1  ZINC000001174632   -0.3200
     19 C19       -14.3809   -5.3062   55.6116 C.3     1  ZINC000001174632    0.0300
     20 C20       -11.1456   -3.8450   56.5043 C.ar    1  ZINC000001174632   -0.2100
     21 C21       -10.6012   -3.1347   57.5537 C.ar    1  ZINC000001174632   -0.0500
     22 C22        -9.8829   -2.5241   60.7520 C.2     1  ZINC000001174632    0.4500
     23 O23        -9.4390   -3.6547   60.7976 O.2     1  ZINC000001174632   -0.4100
     24 C24        -9.5733   -1.4125   61.6930 C.ar    1  ZINC000001174632   -0.1600
     25 C25        -8.7616   -1.3260   62.8084 C.ar    1  ZINC000001174632   -0.0500
     26 C26        -8.6681   -0.1261   63.5066 C.ar    1  ZINC000001174632   -0.1100
     27 C27        -9.3824    0.9764   63.0902 C.ar    1  ZINC000001174632   -0.0900
     28 C28       -10.2018    0.9009   61.9700 C.ar    1  ZINC000001174632   -0.0800
     29 C29       -10.2986   -0.2878   61.2617 C.ar    1  ZINC000001174632   -0.0600
     30 H30       -11.2936    2.6607   58.4105 H       1  ZINC000001174632    0.0700
     31 H31       -10.0809    3.8338   58.9774 H       1  ZINC000001174632    0.1100
     32 H32       -10.0422    3.2572   57.2939 H       1  ZINC000001174632    0.0700
     33 H33        -9.7975    0.6272   55.3313 H       1  ZINC000001174632    0.1400
     34 H34       -11.8625    0.1041   54.1089 H       1  ZINC000001174632    0.1300
     35 H35       -13.9384   -0.3877   55.3321 H       1  ZINC000001174632    0.1300
     36 H36       -13.9698   -0.3597   57.7880 H       1  ZINC000001174632    0.1300
     37 H37       -12.5097    0.7590   59.8266 H       1  ZINC000001174632    0.4300
     38 H38       -13.3914   -2.7808   59.4545 H       1  ZINC000001174632    0.1300
     39 H39       -14.3513   -4.0379   57.5714 H       1  ZINC000001174632    0.1300
     40 H40       -14.4583   -5.9659   56.4757 H       1  ZINC000001174632    0.0600
     41 H41       -15.0326   -4.4440   55.7531 H       1  ZINC000001174632    0.0600
     42 H42       -14.6825   -5.8462   54.7140 H       1  ZINC000001174632    0.1000
     43 H43       -10.5217   -4.1463   55.6759 H       1  ZINC000001174632    0.1300
     44 H44        -9.5510   -2.8829   57.5492 H       1  ZINC000001174632    0.1300
     45 H45        -8.2010   -2.1884   63.1376 H       1  ZINC000001174632    0.1400
     46 H46        -8.0339   -0.0585   64.3781 H       1  ZINC000001174632    0.1400
     47 H47        -9.3054    1.9041   63.6376 H       1  ZINC000001174632    0.1400
     48 H48       -10.7591    1.7684   61.6486 H       1  ZINC000001174632    0.1300
@<TRIPOS>BOND
     1     1     2    1
     2     1    30    1
     3     1    31    1
     4     1    32    1
     5     2     3    1
     6     3     4    2
     7     3     5    1
     8     5    10   ar
     9     5     6   ar
    10     6     7   ar
    11     6    33    1
    12     7     8   ar
    13     7    34    1
    14     8     9   ar
    15     8    35    1
    16     9    10   ar
    17     9    36    1
    18    10    11    1
    19    11    12    1
    20    11    37    1
    21    12    29    1
    22    12    13    2
    23    13    14    1
    24    13    22    1
    25    14    21   ar
    26    14    15   ar
    27    15    16   ar
    28    15    38    1
    29    16    17   ar
    30    16    39    1
    31    17    18    1
    32    17    20   ar
    33    18    19    1
    34    19    40    1
    35    19    41    1
    36    19    42    1
    37    20    21   ar
    38    20    43    1
    39    21    44    1
    40    22    23    2
    41    22    24    1
    42    24    29   ar
    43    24    25   ar
    44    25    26   ar
    45    25    45    1
    46    26    27   ar
    47    26    46    1
    48    27    28   ar
    49    27    47    1
    50    28    29   ar
    51    28    48    1
@<TRIPOS>SUBSTRUCTURE
     1 ZINC000001174632        1 TEMP              0 ****  ****    0 ROOT


##########                                Name:    ZINC000863246516
##########                DOCK_Rotatable_Bonds:                   5
##########                         Heavy_Atoms:                  25
##########                    Molecular_Weight:             356.489
##########                DOCK_Rotatable_Bonds:                   5
##########                       Formal_Charge:         -0.00999938
##########                     HBond_Acceptors:                   5
##########                        HBond_Donors:                   0
##########                         Heavy_Atoms:                  25
##########                          Grid_Score:          -32.272137
##########                     Grid_vdw_energy:          -32.239098
##########                      Grid_es_energy:           -0.033039
##########           Internal_energy_repulsive:           11.291412

@<TRIPOS>MOLECULE
ZINC000863246516
 49 52 1 0 0
SMALL
USER_CHARGES


@<TRIPOS>ATOM
      1 C1        -13.1399   -1.2110   51.1118 C.3     1  ZINC000863246516   -0.0600
      2 C2        -13.4115   -2.1433   52.2643 C.2     1  ZINC000863246516   -0.2000
      3 C3        -12.5373   -2.6073   53.1464 C.2     1  ZINC000863246516    0.0900
      4 C4        -11.0799   -2.2282   53.0896 C.3     1  ZINC000863246516   -0.1000
      5 N5        -13.0218   -3.4437   54.1074 N.am    1  ZINC000863246516   -0.5300
      6 C6        -12.1462   -4.0153   55.1334 C.3     1  ZINC000863246516    0.1200
      7 C7        -12.3458   -3.2632   56.4508 C.3     1  ZINC000863246516   -0.1500
      8 C8        -11.4829   -3.8839   57.5192 C.2     1  ZINC000863246516    0.5400
      9 O9        -11.4425   -5.0898   57.6415 O.2     1  ZINC000863246516   -0.5300
     10 N10       -10.7562   -3.0987   58.3389 N.am    1  ZINC000863246516   -0.6100
     11 C11        -9.8798   -3.5763   59.4145 C.3     1  ZINC000863246516    0.1100
     12 C12        -8.9296   -2.4142   59.7608 C.3     1  ZINC000863246516   -0.1300
     13 H13        -7.9222   -2.4971   59.3531 H       1  ZINC000863246516    0.1000
     14 C14        -9.0392   -1.9619   61.2264 C.3     1  ZINC000863246516   -0.1200
     15 C15       -10.3194   -1.2119   60.8247 C.3     1  ZINC000863246516   -0.0600
     16 H16       -11.2229   -1.8160   60.9083 H       1  ZINC000863246516    0.1000
     17 C17       -10.4569    0.1390   61.4783 C.ar    1  ZINC000863246516   -0.0700
     18 C18       -11.0716    1.1753   60.8007 C.ar    1  ZINC000863246516   -0.1200
     19 C19       -11.1976    2.4144   61.4003 C.ar    1  ZINC000863246516   -0.1200
     20 C20       -10.7095    2.6172   62.6776 C.ar    1  ZINC000863246516   -0.1200
     21 C21       -10.0957    1.5806   63.3555 C.ar    1  ZINC000863246516   -0.1200
     22 C22        -9.9734    0.3402   62.7576 C.ar    1  ZINC000863246516   -0.1200
     23 C23        -9.7434   -1.1520   59.3811 C.3     1  ZINC000863246516   -0.1100
     24 H24        -9.1725   -0.2569   59.1342 H       1  ZINC000863246516    0.1200
     25 C25       -10.7127   -1.6336   58.2913 C.3     1  ZINC000863246516    0.1200
     26 C26       -14.3348   -3.7216   54.0750 C.2     1  ZINC000863246516    0.4800
     27 O27       -14.9521   -4.4410   54.8403 O.2     1  ZINC000863246516   -0.4700
     28 S28       -14.9688   -2.8470   52.7338 S.3     1  ZINC000863246516    0.0100
     29 H29       -14.0689   -1.0147   50.5766 H       1  ZINC000863246516    0.0700
     30 H30       -12.7341   -0.2731   51.4910 H       1  ZINC000863246516    0.0800
     31 H31       -12.4204   -1.6707   50.4343 H       1  ZINC000863246516    0.0800
     32 H32       -10.9119   -1.5554   52.2487 H       1  ZINC000863246516    0.0900
     33 H33       -10.7980   -1.7287   54.0165 H       1  ZINC000863246516    0.0800
     34 H34       -10.4755   -3.1264   52.9627 H       1  ZINC000863246516    0.0800
     35 H35       -12.3915   -5.0678   55.2751 H       1  ZINC000863246516    0.1000
     36 H36       -11.1074   -3.9238   54.8166 H       1  ZINC000863246516    0.1000
     37 H37       -12.0652   -2.2183   56.3188 H       1  ZINC000863246516    0.1000
     38 H38       -13.3926   -3.3236   56.7486 H       1  ZINC000863246516    0.1000
     39 H39       -10.4739   -3.8452   60.2880 H       1  ZINC000863246516    0.0700
     40 H40        -9.3062   -4.4380   59.0734 H       1  ZINC000863246516    0.0800
     41 H41        -9.2146   -2.7812   61.9236 H       1  ZINC000863246516    0.0800
     42 H42        -8.2292   -1.3039   61.5413 H       1  ZINC000863246516    0.0900
     43 H43       -11.4530    1.0170   59.8028 H       1  ZINC000863246516    0.1200
     44 H44       -11.6773    3.2243   60.8706 H       1  ZINC000863246516    0.1200
     45 H45       -10.8074    3.5855   63.1457 H       1  ZINC000863246516    0.1200
     46 H46        -9.7139    1.7390   64.3533 H       1  ZINC000863246516    0.1200
     47 H47        -9.4938   -0.4696   63.2872 H       1  ZINC000863246516    0.1200
     48 H48       -10.3686   -1.2922   57.3149 H       1  ZINC000863246516    0.0700
     49 H49       -11.7113   -1.2432   58.4875 H       1  ZINC000863246516    0.0700
@<TRIPOS>BOND
     1     1     2    1
     2     1    29    1
     3     1    30    1
     4     1    31    1
     5     2    28    1
     6     2     3    2
     7     3     4    1
     8     3     5    1
     9     4    32    1
    10     4    33    1
    11     4    34    1
    12     5     6    1
    13     5    26   am
    14     6     7    1
    15     6    35    1
    16     6    36    1
    17     7     8    1
    18     7    37    1
    19     7    38    1
    20     8     9    2
    21     8    10   am
    22    10    25    1
    23    10    11    1
    24    11    12    1
    25    11    39    1
    26    11    40    1
    27    12    13    1
    28    12    23    1
    29    12    14    1
    30    14    15    1
    31    14    41    1
    32    14    42    1
    33    15    16    1
    34    15    17    1
    35    15    23    1
    36    17    22   ar
    37    17    18   ar
    38    18    19   ar
    39    18    43    1
    40    19    20   ar
    41    19    44    1
    42    20    21   ar
    43    20    45    1
    44    21    22   ar
    45    21    46    1
    46    22    47    1
    47    23    24    1
    48    23    25    1
    49    25    48    1
    50    25    49    1
    51    26    27    2
    52    26    28    1
@<TRIPOS>SUBSTRUCTURE
     1 ZINC000863246516        1 TEMP              0 ****  ****    0 ROOT


##########                                Name:    ZINC000047262406
##########                DOCK_Rotatable_Bonds:                   6
##########                         Heavy_Atoms:                  28
##########                    Molecular_Weight:             417.919
##########                DOCK_Rotatable_Bonds:                   6
##########                       Formal_Charge:          -0.0100002
##########                     HBond_Acceptors:                   9
##########                        HBond_Donors:                   1
##########                         Heavy_Atoms:                  28
##########                          Grid_Score:          -32.271576
##########                     Grid_vdw_energy:          -32.455158
##########                      Grid_es_energy:            0.183582
##########           Internal_energy_repulsive:           14.855376

@<TRIPOS>MOLECULE
ZINC000047262406
 48 51 1 0 0
SMALL
USER_CHARGES


@<TRIPOS>ATOM
      1 C1        -13.3522   -4.3887   55.1619 C.3     1  ZINC000047262406   -0.1500
      2 C2        -13.0517   -2.8954   55.0183 C.3     1  ZINC000047262406    0.1800
      3 H3        -13.9082   -2.3941   54.5673 H       1  ZINC000047262406    0.0800
      4 C4        -11.8411   -2.7087   54.1405 C.2     1  ZINC000047262406    0.1700
      5 N5        -11.2854   -3.6201   53.3929 N.2     1  ZINC000047262406   -0.2500
      6 N6        -10.2731   -3.1164   52.7791 N.2     1  ZINC000047262406   -0.2700
      7 C7        -10.1466   -1.8517   53.1179 C.2     1  ZINC000047262406    0.2400
      8 C8         -9.1165   -0.9184   52.6381 C.2     1  ZINC000047262406   -0.1500
      9 C9         -8.9139    0.3420   53.1113 C.2     1  ZINC000047262406   -0.0600
     10 C10        -7.8846    1.0223   52.4990 C.2     1  ZINC000047262406   -0.1400
     11 C11        -7.2461    0.3446   51.5394 C.2     1  ZINC000047262406   -0.1900
     12 S12        -7.9481   -1.2582   51.3680 S.3     1  ZINC000047262406    0.1700
     13 O13       -11.1426   -1.5695   53.9829 O.3     1  ZINC000047262406   -0.2200
     14 N14       -12.7890   -2.3191   56.3437 N.3     1  ZINC000047262406   -0.5200
     15 C15       -12.9450   -0.8591   56.3230 C.3     1  ZINC000047262406    0.0500
     16 C16       -12.8079   -0.3099   57.7449 C.3     1  ZINC000047262406   -0.1000
     17 C17       -11.4323   -0.6871   58.3020 C.3     1  ZINC000047262406   -0.1100
     18 C18       -11.3141   -0.2008   59.7235 C.2     1  ZINC000047262406    0.5100
     19 O19       -12.3135    0.0105   60.3772 O.2     1  ZINC000047262406   -0.4600
     20 N20       -10.0977   -0.0007   60.2682 N.am    1  ZINC000047262406   -0.6600
     21 C21        -9.9883    0.4494   61.5837 C.ar    1  ZINC000047262406    0.3600
     22 C22        -9.3544   -0.3445   62.5321 C.ar    1  ZINC000047262406   -0.2000
     23 C23        -9.2520    0.1138   63.8341 C.ar    1  ZINC000047262406   -0.0400
     24 C24        -9.7901    1.3562   64.1432 C.ar    1  ZINC000047262406   -0.1200
     25 Cl25       -9.6885    1.9785   65.7607 Cl      1  ZINC000047262406   -0.0500
     26 C26       -10.4069    2.0922   63.1489 C.ar    1  ZINC000047262406    0.1500
     27 N27       -10.4844    1.6307   61.9157 N.ar    1  ZINC000047262406   -0.4600
     28 C28       -11.2766   -2.2100   58.2675 C.3     1  ZINC000047262406   -0.1100
     29 C29       -11.4582   -2.7040   56.8306 C.3     1  ZINC000047262406    0.0600
     30 H30       -14.2278   -4.5237   55.7968 H       1  ZINC000047262406    0.0800
     31 H31       -13.5471   -4.8164   54.1784 H       1  ZINC000047262406    0.0700
     32 H32       -12.4957   -4.8900   55.6128 H       1  ZINC000047262406    0.0800
     33 H33        -9.5111    0.7729   53.9014 H       1  ZINC000047262406    0.1600
     34 H34        -7.6130    2.0308   52.7739 H       1  ZINC000047262406    0.1600
     35 H35        -6.4186    0.7242   50.9584 H       1  ZINC000047262406    0.1800
     36 H36       -12.1748   -0.4205   55.6884 H       1  ZINC000047262406    0.0400
     37 H37       -13.9287   -0.6044   55.9287 H       1  ZINC000047262406    0.0900
     38 H38       -12.9081    0.7754   57.7270 H       1  ZINC000047262406    0.0800
     39 H39       -13.5862   -0.7375   58.3769 H       1  ZINC000047262406    0.0900
     40 H40       -10.6541   -0.2266   57.6935 H       1  ZINC000047262406    0.1000
     41 H41        -9.2984   -0.1696   59.7453 H       1  ZINC000047262406    0.4200
     42 H42        -8.9474   -1.3062   62.2570 H       1  ZINC000047262406    0.1500
     43 H43        -8.7651   -0.4815   64.5924 H       1  ZINC000047262406    0.1500
     44 H44       -10.8273    3.0589   63.3840 H       1  ZINC000047262406    0.1700
     45 H45       -10.2829   -2.4823   58.6232 H       1  ZINC000047262406    0.0700
     46 H46       -12.0310   -2.6675   58.9077 H       1  ZINC000047262406    0.0800
     47 H47       -11.3620   -3.7895   56.8049 H       1  ZINC000047262406    0.0700
     48 H48       -10.6950   -2.2568   56.1936 H       1  ZINC000047262406    0.0400
@<TRIPOS>BOND
     1     1     2    1
     2     1    30    1
     3     1    31    1
     4     1    32    1
     5     2     3    1
     6     2     4    1
     7     2    14    1
     8     4    13    1
     9     4     5    2
    10     5     6    1
    11     6     7    2
    12     7     8    1
    13     7    13    1
    14     8    12    1
    15     8     9    2
    16     9    10    1
    17     9    33    1
    18    10    11    2
    19    10    34    1
    20    11    12    1
    21    11    35    1
    22    14    29    1
    23    14    15    1
    24    15    16    1
    25    15    36    1
    26    15    37    1
    27    16    17    1
    28    16    38    1
    29    16    39    1
    30    17    18    1
    31    17    28    1
    32    17    40    1
    33    18    19    2
    34    18    20   am
    35    20    21    1
    36    20    41    1
    37    21    27   ar
    38    21    22   ar
    39    22    23   ar
    40    22    42    1
    41    23    24   ar
    42    23    43    1
    43    24    25    1
    44    24    26   ar
    45    26    27   ar
    46    26    44    1
    47    28    29    1
    48    28    45    1
    49    28    46    1
    50    29    47    1
    51    29    48    1
@<TRIPOS>SUBSTRUCTURE
     1 ZINC000047262406        1 TEMP              0 ****  ****    0 ROOT


##########                                Name:    ZINC001173835973
##########                DOCK_Rotatable_Bonds:                   4
##########                         Heavy_Atoms:                  26
##########                    Molecular_Weight:             343.388
##########                DOCK_Rotatable_Bonds:                   4
##########                       Formal_Charge:           -0.010001
##########                     HBond_Acceptors:                   6
##########                        HBond_Donors:                   4
##########                         Heavy_Atoms:                  26
##########                          Grid_Score:          -32.269440
##########                     Grid_vdw_energy:          -30.737425
##########                      Grid_es_energy:           -1.532014
##########           Internal_energy_repulsive:            6.874790

@<TRIPOS>MOLECULE
ZINC001173835973
 43 46 1 0 0
SMALL
USER_CHARGES


@<TRIPOS>ATOM
      1 C1        -10.3570    2.3664   63.6208 C.3     1  ZINC001173835973   -0.1700
      2 C2        -10.7598    1.2078   62.7452 C.2     1  ZINC001173835973    0.5100
      3 O3        -11.9178    0.8491   62.7087 O.2     1  ZINC001173835973   -0.5200
      4 N4         -9.8331    0.5704   62.0026 N.am    1  ZINC001173835973   -0.6800
      5 C5        -10.2070   -0.5053   61.1896 C.ar    1  ZINC001173835973    0.1800
      6 C6         -9.6570   -1.7627   61.4038 C.ar    1  ZINC001173835973   -0.1900
      7 C7        -10.0255   -2.8260   60.6015 C.ar    1  ZINC001173835973   -0.0600
      8 C8        -10.9419   -2.6426   59.5845 C.ar    1  ZINC001173835973   -0.1900
      9 C9        -11.4962   -1.3867   59.3647 C.ar    1  ZINC001173835973    0.2200
     10 N10       -12.4224   -1.2018   58.3364 N.pl3   1  ZINC001173835973   -0.6900
     11 C11       -12.2805   -1.9015   57.1324 C.ar    1  ZINC001173835973    0.0400
     12 C12       -11.4797   -1.4002   56.1488 C.ar    1  ZINC001173835973    0.2400
     13 N13       -10.8062   -0.1902   56.3510 N.pl3   1  ZINC001173835973   -0.8600
     14 C14       -11.3195   -2.1159   54.8877 C.ar    1  ZINC001173835973   -0.1100
     15 C15       -10.4959   -1.6050   53.8714 C.ar    1  ZINC001173835973   -0.0600
     16 C16       -10.3823   -2.3188   52.7091 C.ar    1  ZINC001173835973   -0.1700
     17 C17       -11.0741   -3.5152   52.5625 C.ar    1  ZINC001173835973    0.1200
     18 N18       -11.8426   -3.9863   53.5181 N.ar    1  ZINC001173835973   -0.4400
     19 C19       -11.9932   -3.3381   54.6709 C.ar    1  ZINC001173835973    0.1900
     20 C20       -12.8550   -3.8776   55.7294 C.ar    1  ZINC001173835973    0.1300
     21 N21       -13.5049   -5.0268   55.5595 N.ar    1  ZINC001173835973   -0.4400
     22 C22       -14.2794   -5.5212   56.4984 C.ar    1  ZINC001173835973    0.1000
     23 C23       -14.4572   -4.8690   57.7125 C.ar    1  ZINC001173835973   -0.1500
     24 C24       -13.8159   -3.6829   57.9482 C.ar    1  ZINC001173835973   -0.0700
     25 C25       -12.9856   -3.1644   56.9415 C.ar    1  ZINC001173835973   -0.0400
     26 C26       -11.1318   -0.3182   60.1722 C.ar    1  ZINC001173835973   -0.1900
     27 H27       -11.2344    2.7507   64.1410 H       1  ZINC001173835973    0.1000
     28 H28        -9.6199    2.0313   64.3504 H       1  ZINC001173835973    0.0900
     29 H29        -9.9257    3.1549   63.0043 H       1  ZINC001173835973    0.0900
     30 H30        -8.9070    0.8574   62.0316 H       1  ZINC001173835973    0.4100
     31 H31        -8.9402   -1.9096   62.1982 H       1  ZINC001173835973    0.1200
     32 H32        -9.5958   -3.8024   60.7700 H       1  ZINC001173835973    0.1200
     33 H33       -11.2277   -3.4755   58.9593 H       1  ZINC001173835973    0.1200
     34 H34       -13.1644   -0.5886   58.4563 H       1  ZINC001173835973    0.4000
     35 H35       -10.8447    0.2476   57.2157 H       1  ZINC001173835973    0.4100
     36 H36       -10.3009    0.2104   55.6264 H       1  ZINC001173835973    0.4000
     37 H37        -9.9661   -0.6731   54.0034 H       1  ZINC001173835973    0.1400
     38 H38        -9.7571   -1.9531   51.9079 H       1  ZINC001173835973    0.1400
     39 H39       -10.9779   -4.0705   51.6413 H       1  ZINC001173835973    0.1700
     40 H40       -14.7902   -6.4564   56.3223 H       1  ZINC001173835973    0.1600
     41 H41       -15.0997   -5.2965   58.4679 H       1  ZINC001173835973    0.1400
     42 H42       -13.9422   -3.1614   58.8856 H       1  ZINC001173835973    0.1400
     43 H43       -11.5611    0.6584   60.0039 H       1  ZINC001173835973    0.1400
@<TRIPOS>BOND
     1     1     2    1
     2     1    27    1
     3     1    28    1
     4     1    29    1
     5     2     3    2
     6     2     4   am
     7     4     5    1
     8     4    30    1
     9     5    26   ar
    10     5     6   ar
    11     6     7   ar
    12     6    31    1
    13     7     8   ar
    14     7    32    1
    15     8     9   ar
    16     8    33    1
    17     9    10    1
    18     9    26   ar
    19    10    11    1
    20    10    34    1
    21    11    25   ar
    22    11    12   ar
    23    12    13    1
    24    12    14   ar
    25    13    35    1
    26    13    36    1
    27    14    19   ar
    28    14    15   ar
    29    15    16   ar
    30    15    37    1
    31    16    17   ar
    32    16    38    1
    33    17    18   ar
    34    17    39    1
    35    18    19   ar
    36    19    20   ar
    37    20    25   ar
    38    20    21   ar
    39    21    22   ar
    40    22    23   ar
    41    22    40    1
    42    23    24   ar
    43    23    41    1
    44    24    25   ar
    45    24    42    1
    46    26    43    1
@<TRIPOS>SUBSTRUCTURE
     1 ZINC001173835973        1 TEMP              0 ****  ****    0 ROOT


##########                                Name:    ZINC000081577146
##########                DOCK_Rotatable_Bonds:                   4
##########                         Heavy_Atoms:                  25
##########                    Molecular_Weight:             355.464
##########                DOCK_Rotatable_Bonds:                   4
##########                       Formal_Charge:                0.02
##########                     HBond_Acceptors:                   7
##########                        HBond_Donors:                   0
##########                         Heavy_Atoms:                  25
##########                          Grid_Score:          -32.267521
##########                     Grid_vdw_energy:          -32.777607
##########                      Grid_es_energy:            0.510086
##########           Internal_energy_repulsive:           12.525377

@<TRIPOS>MOLECULE
ZINC000081577146
 46 49 1 0 0
SMALL
USER_CHARGES


@<TRIPOS>ATOM
      1 C1         -9.6232    0.1674   63.2367 C.3     1  ZINC000081577146   -0.0700
      2 C2         -9.4458   -0.7736   62.0730 C.2     1  ZINC000081577146    0.2900
      3 N3         -8.7251   -1.8513   62.1849 N.2     1  ZINC000081577146   -0.4800
      4 S4         -8.7899   -2.6099   60.6655 S.3     1  ZINC000081577146    0.1900
      5 C5         -9.8022   -1.4097   59.9557 C.2     1  ZINC000081577146    0.2700
      6 N6        -10.2873   -1.3757   58.6609 N.3     1  ZINC000081577146   -0.4300
      7 C7        -11.2780   -0.3027   58.4977 C.3     1  ZINC000081577146    0.0700
      8 C8        -11.7300   -0.2473   57.0365 C.3     1  ZINC000081577146    0.0500
      9 N9        -12.2978   -1.5471   56.6525 N.3     1  ZINC000081577146   -0.5200
     10 C10       -12.8130   -1.5110   55.2773 C.3     1  ZINC000081577146    0.1900
     11 H11       -13.3305   -0.5668   55.1078 H       1  ZINC000081577146    0.0700
     12 C12       -13.7876   -2.6716   55.0673 C.3     1  ZINC000081577146   -0.1500
     13 C13       -11.6662   -1.6364   54.3077 C.2     1  ZINC000081577146    0.1900
     14 N14       -11.3680   -2.7047   53.6226 N.2     1  ZINC000081577146   -0.4500
     15 C15       -10.2894   -2.4492   52.8670 C.2     1  ZINC000081577146   -0.0200
     16 C16        -9.9175   -1.1656   53.1063 C.2     1  ZINC000081577146    0.0000
     17 C17        -8.7779   -0.4499   52.4944 C.ar    1  ZINC000081577146   -0.0200
     18 C18        -8.5211    0.8793   52.8343 C.ar    1  ZINC000081577146   -0.1000
     19 C19        -7.4557    1.5414   52.2599 C.ar    1  ZINC000081577146   -0.1200
     20 C20        -6.6430    0.8908   51.3485 C.ar    1  ZINC000081577146   -0.1100
     21 C21        -6.8924   -0.4264   51.0070 C.ar    1  ZINC000081577146   -0.1100
     22 C22        -7.9508   -1.1020   51.5786 C.ar    1  ZINC000081577146   -0.0900
     23 O23       -10.7923   -0.6662   54.0069 O.3     1  ZINC000081577146   -0.2000
     24 C24       -11.3071   -2.6203   56.8157 C.3     1  ZINC000081577146    0.0600
     25 C25       -10.8550   -2.6756   58.2769 C.3     1  ZINC000081577146    0.0500
     26 N26       -10.0177   -0.5350   60.9156 N.2     1  ZINC000081577146   -0.5400
     27 H27       -10.4948   -0.1339   63.8178 H       1  ZINC000081577146    0.0900
     28 H28        -8.7360    0.1348   63.8689 H       1  ZINC000081577146    0.0900
     29 H29        -9.7674    1.1818   62.8649 H       1  ZINC000081577146    0.0900
     30 H30       -12.1380   -0.5014   59.1372 H       1  ZINC000081577146    0.0700
     31 H31       -10.8300    0.6512   58.7762 H       1  ZINC000081577146    0.1100
     32 H32       -12.4862    0.5289   56.9190 H       1  ZINC000081577146    0.1000
     33 H33       -10.8748   -0.0215   56.3995 H       1  ZINC000081577146    0.0600
     34 H34       -13.2702   -3.6158   55.2367 H       1  ZINC000081577146    0.0800
     35 H35       -14.6171   -2.5809   55.7685 H       1  ZINC000081577146    0.0800
     36 H36       -14.1699   -2.6449   54.0469 H       1  ZINC000081577146    0.0700
     37 H37        -9.8053   -3.1389   52.1914 H       1  ZINC000081577146    0.1900
     38 H38        -9.1551    1.3884   53.5450 H       1  ZINC000081577146    0.1300
     39 H39        -7.2558    2.5699   52.5220 H       1  ZINC000081577146    0.1300
     40 H40        -5.8105    1.4138   50.9015 H       1  ZINC000081577146    0.1300
     41 H41        -6.2547   -0.9283   50.2943 H       1  ZINC000081577146    0.1300
     42 H42        -8.1442   -2.1304   51.3115 H       1  ZINC000081577146    0.1300
     43 H43       -11.7550   -3.5741   56.5373 H       1  ZINC000081577146    0.0900
     44 H44       -10.4470   -2.4215   56.1763 H       1  ZINC000081577146    0.0500
     45 H45       -10.0989   -3.4518   58.3944 H       1  ZINC000081577146    0.1000
     46 H46       -11.7103   -2.9013   58.9138 H       1  ZINC000081577146    0.0800
@<TRIPOS>BOND
     1     1     2    1
     2     1    27    1
     3     1    28    1
     4     1    29    1
     5     2    26    1
     6     2     3    2
     7     3     4    1
     8     4     5    1
     9     5     6    1
    10     5    26    2
    11     6    25    1
    12     6     7    1
    13     7     8    1
    14     7    30    1
    15     7    31    1
    16     8     9    1
    17     8    32    1
    18     8    33    1
    19     9    10    1
    20     9    24    1
    21    10    11    1
    22    10    12    1
    23    10    13    1
    24    12    34    1
    25    12    35    1
    26    12    36    1
    27    13    23    1
    28    13    14    2
    29    14    15    1
    30    15    16    2
    31    15    37    1
    32    16    17    1
    33    16    23    1
    34    17    22   ar
    35    17    18   ar
    36    18    19   ar
    37    18    38    1
    38    19    20   ar
    39    19    39    1
    40    20    21   ar
    41    20    40    1
    42    21    22   ar
    43    21    41    1
    44    22    42    1
    45    24    25    1
    46    24    43    1
    47    24    44    1
    48    25    45    1
    49    25    46    1
@<TRIPOS>SUBSTRUCTURE
     1 ZINC000081577146        1 TEMP              0 ****  ****    0 ROOT


##########                                Name:    ZINC000347662449
##########                DOCK_Rotatable_Bonds:                   5
##########                         Heavy_Atoms:                  23
##########                    Molecular_Weight:              327.45
##########                DOCK_Rotatable_Bonds:                   5
##########                       Formal_Charge:                0.03
##########                     HBond_Acceptors:                   5
##########                        HBond_Donors:                   0
##########                         Heavy_Atoms:                  23
##########                          Grid_Score:          -32.234589
##########                     Grid_vdw_energy:          -31.187012
##########                      Grid_es_energy:           -1.047578
##########           Internal_energy_repulsive:            3.438817

@<TRIPOS>MOLECULE
ZINC000347662449
 44 46 1 0 0
SMALL
USER_CHARGES


@<TRIPOS>ATOM
      1 C1         -8.9908   -1.2515   62.3661 C.2     1  ZINC000347662449   -0.1800
      2 C2         -9.8357   -1.7497   61.4978 C.2     1  ZINC000347662449   -0.1700
      3 C3         -9.3556   -2.7233   60.4525 C.3     1  ZINC000347662449    0.1600
      4 N4        -10.2076   -2.6242   59.2648 N.am    1  ZINC000347662449   -0.6200
      5 C5        -10.9192   -1.4076   58.8554 C.3     1  ZINC000347662449    0.1100
      6 C6        -11.3054   -1.6340   57.3768 C.3     1  ZINC000347662449   -0.1100
      7 C7        -11.3535   -3.1774   57.2964 C.3     1  ZINC000347662449   -0.1200
      8 H8        -12.3687   -3.5368   57.4647 H       1  ZINC000347662449    0.1400
      9 S9        -10.7391   -3.7475   55.6920 S.3     1  ZINC000347662449    0.0300
     10 C10       -12.0837   -3.2649   54.6605 C.2     1  ZINC000347662449    0.1900
     11 N11       -13.3207   -3.6928   54.7603 N.2     1  ZINC000347662449   -0.4500
     12 C12       -14.0714   -3.1109   53.8097 C.2     1  ZINC000347662449   -0.0100
     13 C13       -13.2850   -2.2925   53.0899 C.2     1  ZINC000347662449   -0.0400
     14 N14       -12.0179   -2.3786   53.6260 N.pl3   1  ZINC000347662449   -0.4000
     15 C15       -10.8772   -1.6922   53.1863 C.ar    1  ZINC000347662449    0.1100
     16 C16        -9.9826   -2.3110   52.3241 C.ar    1  ZINC000347662449   -0.1100
     17 C17        -8.8594   -1.6322   51.8925 C.ar    1  ZINC000347662449   -0.1000
     18 C18        -8.6261   -0.3378   52.3186 C.ar    1  ZINC000347662449   -0.0800
     19 C19        -7.4002    0.4002   51.8456 C.3     1  ZINC000347662449   -0.1200
     20 C20        -9.5157    0.2813   53.1777 C.ar    1  ZINC000347662449   -0.0700
     21 C21        -9.2577    1.6924   53.6397 C.3     1  ZINC000347662449   -0.1200
     22 C22       -10.6432   -0.3901   53.6079 C.ar    1  ZINC000347662449   -0.1100
     23 C23       -10.4335   -3.6341   58.4071 C.2     1  ZINC000347662449    0.5300
     24 O24        -9.9727   -4.7510   58.5123 O.2     1  ZINC000347662449   -0.4900
     25 H25        -7.9501   -1.5384   62.3328 H       1  ZINC000347662449    0.1000
     26 H26        -9.3340   -0.5504   63.1125 H       1  ZINC000347662449    0.1000
     27 H27       -10.8764   -1.4627   61.5311 H       1  ZINC000347662449    0.1100
     28 H28        -8.3264   -2.4877   60.1820 H       1  ZINC000347662449    0.0900
     29 H29        -9.4037   -3.7368   60.8506 H       1  ZINC000347662449    0.0900
     30 H30       -11.8142   -1.2717   59.4625 H       1  ZINC000347662449    0.0800
     31 H31       -10.2658   -0.5399   58.9460 H       1  ZINC000347662449    0.0900
     32 H32       -12.2818   -1.2015   57.1581 H       1  ZINC000347662449    0.1100
     33 H33       -10.5438   -1.2320   56.7087 H       1  ZINC000347662449    0.0900
     34 H34       -15.1273   -3.2732   53.6511 H       1  ZINC000347662449    0.1800
     35 H35       -13.5888   -1.6810   52.2531 H       1  ZINC000347662449    0.1800
     36 H36       -10.1641   -3.3222   51.9911 H       1  ZINC000347662449    0.1300
     37 H37        -8.1628   -2.1133   51.2219 H       1  ZINC000347662449    0.1300
     38 H38        -7.6321    0.9382   50.9264 H       1  ZINC000347662449    0.0800
     39 H39        -7.0845    1.1086   52.6115 H       1  ZINC000347662449    0.0700
     40 H40        -6.5974   -0.3126   51.6567 H       1  ZINC000347662449    0.0700
     41 H41        -9.7225    2.3927   52.9458 H       1  ZINC000347662449    0.0800
     42 H42        -9.6806    1.8319   54.6346 H       1  ZINC000347662449    0.0700
     43 H43        -8.1833    1.8731   53.6731 H       1  ZINC000347662449    0.0800
     44 H44       -11.3376    0.0939   54.2785 H       1  ZINC000347662449    0.1300
@<TRIPOS>BOND
     1     1     2    2
     2     1    25    1
     3     1    26    1
     4     2     3    1
     5     2    27    1
     6     3     4    1
     7     3    28    1
     8     3    29    1
     9     4    23   am
    10     4     5    1
    11     5     6    1
    12     5    30    1
    13     5    31    1
    14     6     7    1
    15     6    32    1
    16     6    33    1
    17     7     8    1
    18     7     9    1
    19     7    23    1
    20     9    10    1
    21    10    14    1
    22    10    11    2
    23    11    12    1
    24    12    13    2
    25    12    34    1
    26    13    14    1
    27    13    35    1
    28    14    15    1
    29    15    22   ar
    30    15    16   ar
    31    16    17   ar
    32    16    36    1
    33    17    18   ar
    34    17    37    1
    35    18    19    1
    36    18    20   ar
    37    19    38    1
    38    19    39    1
    39    19    40    1
    40    20    21    1
    41    20    22   ar
    42    21    41    1
    43    21    42    1
    44    21    43    1
    45    22    44    1
    46    23    24    2
@<TRIPOS>SUBSTRUCTURE
     1 ZINC000347662449        1 TEMP              0 ****  ****    0 ROOT


##########                                Name:    ZINC000435292384
##########                DOCK_Rotatable_Bonds:                   6
##########                         Heavy_Atoms:                  22
##########                    Molecular_Weight:             326.503
##########                DOCK_Rotatable_Bonds:                   6
##########                       Formal_Charge:         -0.00999993
##########                     HBond_Acceptors:                   5
##########                        HBond_Donors:                   0
##########                         Heavy_Atoms:                  22
##########                          Grid_Score:          -32.210613
##########                     Grid_vdw_energy:          -31.699415
##########                      Grid_es_energy:           -0.511197
##########           Internal_energy_repulsive:           25.690195

@<TRIPOS>MOLECULE
ZINC000435292384
 52 53 1 0 0
SMALL
USER_CHARGES


@<TRIPOS>ATOM
      1 C1        -10.1378   -2.3860   52.3628 C.3     1  ZINC000435292384   -0.1500
      2 C2        -11.1810   -3.3652   52.9047 C.3     1  ZINC000435292384   -0.1200
      3 C3        -12.5111   -2.6353   53.1030 C.3     1  ZINC000435292384   -0.1400
      4 C4        -13.4643   -3.5216   53.9073 C.3     1  ZINC000435292384    0.1600
      5 H5        -13.5522   -4.4940   53.4225 H       1  ZINC000435292384    0.0900
      6 C6        -14.8417   -2.8591   53.9751 C.3     1  ZINC000435292384   -0.1700
      7 N7        -12.9397   -3.6978   55.2638 N.am    1  ZINC000435292384   -0.6100
      8 C8        -12.1400   -2.6962   55.9789 C.3     1  ZINC000435292384    0.1200
      9 C9        -12.1925   -3.1120   57.4657 C.3     1  ZINC000435292384   -0.1300
     10 H10       -13.0094   -2.6087   57.9828 H       1  ZINC000435292384    0.1100
     11 C11       -10.8768   -2.8402   58.1484 C.2     1  ZINC000435292384    0.5200
     12 O12        -9.8436   -2.8885   57.5152 O.2     1  ZINC000435292384   -0.5200
     13 N13       -10.8483   -2.5435   59.4628 N.am    1  ZINC000435292384   -0.6000
     14 C14        -9.5433   -2.2825   60.1012 C.3     1  ZINC000435292384    0.1000
     15 C15        -9.5995   -1.0867   61.0690 C.3     1  ZINC000435292384   -0.1300
     16 C16       -10.4383    0.0196   60.4779 C.3     1  ZINC000435292384   -0.1100
     17 C17       -11.8838   -0.1405   60.9389 C.3     1  ZINC000435292384   -0.1200
     18 C18       -12.6833   -1.0619   60.1171 C.3     1  ZINC000435292384   -0.0700
     19 H19       -12.6760   -0.7208   59.0818 H       1  ZINC000435292384    0.0900
     20 S20       -14.3907   -1.0850   60.7295 S.3     1  ZINC000435292384   -0.2500
     21 C21       -14.1949   -1.5719   62.4659 C.3     1  ZINC000435292384   -0.1200
     22 C22       -12.0978   -2.4882   60.1880 C.3     1  ZINC000435292384    0.1400
     23 C23       -12.4580   -4.6316   57.3590 C.3     1  ZINC000435292384   -0.1400
     24 C24       -13.1339   -4.7950   56.0155 C.2     1  ZINC000435292384    0.5200
     25 O25       -13.7544   -5.7763   55.6649 O.2     1  ZINC000435292384   -0.5200
     26 H26        -9.1903   -2.9059   52.2216 H       1  ZINC000435292384    0.0500
     27 H27       -10.4777   -1.9845   51.4081 H       1  ZINC000435292384    0.0500
     28 H28       -10.0022   -1.5699   53.0726 H       1  ZINC000435292384    0.0500
     29 H29       -11.3167   -4.1813   52.1951 H       1  ZINC000435292384    0.0600
     30 H30       -10.8411   -3.7667   53.8595 H       1  ZINC000435292384    0.0600
     31 H31       -12.3378   -1.7045   53.6429 H       1  ZINC000435292384    0.0800
     32 H32       -12.9529   -2.4149   52.1312 H       1  ZINC000435292384    0.0800
     33 H33       -14.7536   -1.8867   54.4598 H       1  ZINC000435292384    0.0700
     34 H34       -15.2319   -2.7280   52.9658 H       1  ZINC000435292384    0.0700
     35 H35       -15.5207   -3.4904   54.5481 H       1  ZINC000435292384    0.0600
     36 H36       -11.1109   -2.7088   55.6197 H       1  ZINC000435292384    0.0900
     37 H37       -12.5735   -1.7046   55.8489 H       1  ZINC000435292384    0.0800
     38 H38        -9.2355   -3.1705   60.6534 H       1  ZINC000435292384    0.0700
     39 H39        -8.8051   -2.0762   59.3262 H       1  ZINC000435292384    0.0900
     40 H40       -10.0377   -1.4068   62.0143 H       1  ZINC000435292384    0.0700
     41 H41        -8.5892   -0.7183   61.2475 H       1  ZINC000435292384    0.0800
     42 H42       -10.0550    0.9842   60.8109 H       1  ZINC000435292384    0.0700
     43 H43       -10.3955   -0.0332   59.3900 H       1  ZINC000435292384    0.0600
     44 H44       -11.8811   -0.5062   61.9657 H       1  ZINC000435292384    0.0800
     45 H45       -12.3619    0.8390   60.9253 H       1  ZINC000435292384    0.0600
     46 H46       -13.7182   -2.5508   62.5172 H       1  ZINC000435292384    0.0800
     47 H47       -13.5749   -0.8383   62.9813 H       1  ZINC000435292384    0.0800
     48 H48       -15.1740   -1.6191   62.9426 H       1  ZINC000435292384    0.1000
     49 H49       -12.8027   -3.1924   59.7462 H       1  ZINC000435292384    0.0900
     50 H50       -11.9218   -2.7569   61.2297 H       1  ZINC000435292384    0.0900
     51 H51       -11.5198   -5.1858   57.3882 H       1  ZINC000435292384    0.1100
     52 H52       -13.1213   -4.9601   58.1591 H       1  ZINC000435292384    0.1100
@<TRIPOS>BOND
     1     1     2    1
     2     1    26    1
     3     1    27    1
     4     1    28    1
     5     2     3    1
     6     2    29    1
     7     2    30    1
     8     3     4    1
     9     3    31    1
    10     3    32    1
    11     4     5    1
    12     4     6    1
    13     4     7    1
    14     6    33    1
    15     6    34    1
    16     6    35    1
    17     7    24   am
    18     7     8    1
    19     8     9    1
    20     8    36    1
    21     8    37    1
    22     9    10    1
    23     9    11    1
    24     9    23    1
    25    11    12    2
    26    11    13   am
    27    13    22    1
    28    13    14    1
    29    14    15    1
    30    14    38    1
    31    14    39    1
    32    15    16    1
    33    15    40    1
    34    15    41    1
    35    16    17    1
    36    16    42    1
    37    16    43    1
    38    17    18    1
    39    17    44    1
    40    17    45    1
    41    18    19    1
    42    18    20    1
    43    18    22    1
    44    20    21    1
    45    21    46    1
    46    21    47    1
    47    21    48    1
    48    22    49    1
    49    22    50    1
    50    23    24    1
    51    23    51    1
    52    23    52    1
    53    24    25    2
@<TRIPOS>SUBSTRUCTURE
     1 ZINC000435292384        1 TEMP              0 ****  ****    0 ROOT


##########                                Name:    ZINC001079355651
##########                DOCK_Rotatable_Bonds:                   5
##########                         Heavy_Atoms:                  25
##########                    Molecular_Weight:             353.851
##########                DOCK_Rotatable_Bonds:                   5
##########                       Formal_Charge:           0.0199997
##########                     HBond_Acceptors:                   5
##########                        HBond_Donors:                   1
##########                         Heavy_Atoms:                  25
##########                          Grid_Score:          -32.201813
##########                     Grid_vdw_energy:          -31.955059
##########                      Grid_es_energy:           -0.246755
##########           Internal_energy_repulsive:            5.204833

@<TRIPOS>MOLECULE
ZINC001079355651
 45 47 1 0 0
SMALL
USER_CHARGES


@<TRIPOS>ATOM
      1 C1        -14.5482   -1.7670   52.0161 C.3     1  ZINC001079355651   -0.1500
      2 C2        -13.2826   -2.4221   52.5730 C.3     1  ZINC001079355651   -0.1000
      3 H3        -12.6652   -2.8033   51.7597 H       1  ZINC001079355651    0.0900
      4 C4        -13.6527   -3.5628   53.5452 C.3     1  ZINC001079355651    0.0300
      5 N5        -12.6308   -3.4844   54.6206 N.3     1  ZINC001079355651   -0.5100
      6 C6        -13.1033   -4.1445   55.8449 C.3     1  ZINC001079355651    0.1600
      7 C7        -12.2298   -3.7741   56.9704 C.1     1  ZINC001079355651   -0.1400
      8 C8        -11.5332   -3.4787   57.8679 C.1     1  ZINC001079355651   -0.1300
      9 C9        -10.6836   -3.1183   58.9628 C.ar    1  ZINC001079355651    0.0300
     10 C10        -9.4673   -3.7755   59.1514 C.ar    1  ZINC001079355651   -0.0900
     11 C11        -8.6525   -3.4241   60.2083 C.ar    1  ZINC001079355651   -0.1000
     12 C12        -9.0388   -2.4225   61.0803 C.ar    1  ZINC001079355651   -0.1000
     13 C13       -10.2448   -1.7663   60.8995 C.ar    1  ZINC001079355651   -0.0300
     14 Cl14      -10.7215   -0.5108   61.9995 Cl      1  ZINC001079355651   -0.0600
     15 C15       -11.0659   -2.1046   59.8422 C.ar    1  ZINC001079355651   -0.0900
     16 C16       -12.4429   -2.0272   54.8399 C.3     1  ZINC001079355651    0.0200
     17 C17       -12.4854   -1.4111   53.4225 C.3     1  ZINC001079355651    0.1500
     18 H18       -12.9961   -0.4484   53.4433 H       1  ZINC001079355651    0.1000
     19 N19       -11.1277   -1.2545   52.8948 N.am    1  ZINC001079355651   -0.7100
     20 C20       -10.5527   -0.0359   52.8652 C.2     1  ZINC001079355651    0.5600
     21 O21       -11.1598    0.9326   53.2774 O.2     1  ZINC001079355651   -0.5300
     22 C22        -9.1803    0.1227   52.3299 C.ar    1  ZINC001079355651   -0.0900
     23 C23        -8.4466   -0.9848   51.8943 C.ar    1  ZINC001079355651   -0.1400
     24 C24        -7.1703   -0.7912   51.4023 C.ar    1  ZINC001079355651    0.1000
     25 N25        -6.6444    0.4160   51.3409 N.ar    1  ZINC001079355651   -0.4700
     26 C26        -7.3016    1.4863   51.7408 C.ar    1  ZINC001079355651    0.1000
     27 C27        -8.5853    1.3848   52.2410 C.ar    1  ZINC001079355651   -0.1200
     28 H28       -14.2719   -0.9325   51.3715 H       1  ZINC001079355651    0.0600
     29 H29       -15.1132   -2.4996   51.4399 H       1  ZINC001079355651    0.0700
     30 H30       -15.1612   -1.4020   52.8402 H       1  ZINC001079355651    0.0600
     31 H31       -14.6498   -3.4037   53.9559 H       1  ZINC001079355651    0.0600
     32 H32       -13.5986   -4.5265   53.0387 H       1  ZINC001079355651    0.0900
     33 H33       -14.1243   -3.8276   56.0577 H       1  ZINC001079355651    0.0700
     34 H34       -13.0797   -5.2255   55.7071 H       1  ZINC001079355651    0.1100
     35 H35        -9.1643   -4.5582   58.4717 H       1  ZINC001079355651    0.1300
     36 H36        -7.7111   -3.9326   60.3551 H       1  ZINC001079355651    0.1400
     37 H37        -8.3975   -2.1514   61.9059 H       1  ZINC001079355651    0.1400
     38 H38       -12.0063   -1.5923   59.7017 H       1  ZINC001079355651    0.1400
     39 H39       -13.2506   -1.6278   55.4534 H       1  ZINC001079355651    0.0600
     40 H40       -11.4777   -1.8347   55.3085 H       1  ZINC001079355651    0.0900
     41 H41       -10.6426   -2.0278   52.5669 H       1  ZINC001079355651    0.4000
     42 H42        -8.8710   -1.9768   51.9420 H       1  ZINC001079355651    0.1400
     43 H43        -6.5954   -1.6405   51.0636 H       1  ZINC001079355651    0.1600
     44 H44        -6.8315    2.4563   51.6727 H       1  ZINC001079355651    0.1700
     45 H45        -9.1178    2.2661   52.5670 H       1  ZINC001079355651    0.1500
@<TRIPOS>BOND
     1     1     2    1
     2     1    28    1
     3     1    29    1
     4     1    30    1
     5     2     3    1
     6     2    17    1
     7     2     4    1
     8     4     5    1
     9     4    31    1
    10     4    32    1
    11     5     6    1
    12     5    16    1
    13     6     7    1
    14     6    33    1
    15     6    34    1
    16     7     8    3
    17     8     9    1
    18     9    15   ar
    19     9    10   ar
    20    10    11   ar
    21    10    35    1
    22    11    12   ar
    23    11    36    1
    24    12    13   ar
    25    12    37    1
    26    13    14    1
    27    13    15   ar
    28    15    38    1
    29    16    17    1
    30    16    39    1
    31    16    40    1
    32    17    18    1
    33    17    19    1
    34    19    20   am
    35    19    41    1
    36    20    21    2
    37    20    22    1
    38    22    27   ar
    39    22    23   ar
    40    23    24   ar
    41    23    42    1
    42    24    25   ar
    43    24    43    1
    44    25    26   ar
    45    26    27   ar
    46    26    44    1
    47    27    45    1
@<TRIPOS>SUBSTRUCTURE
     1 ZINC001079355651        1 TEMP              0 ****  ****    0 ROOT


##########                                Name:    ZINC000481050680
##########                DOCK_Rotatable_Bonds:                   7
##########                         Heavy_Atoms:                  29
##########                    Molecular_Weight:              412.46
##########                DOCK_Rotatable_Bonds:                   7
##########                       Formal_Charge:          -0.0199997
##########                     HBond_Acceptors:                   7
##########                        HBond_Donors:                   1
##########                         Heavy_Atoms:                  29
##########                          Grid_Score:          -32.200760
##########                     Grid_vdw_energy:          -30.972490
##########                      Grid_es_energy:           -1.228268
##########           Internal_energy_repulsive:           14.308310

@<TRIPOS>MOLECULE
ZINC000481050680
 47 49 1 0 0
SMALL
USER_CHARGES


@<TRIPOS>ATOM
      1 N1         -7.0230    0.5648   50.5462 N.1     1  ZINC000481050680   -0.3900
      2 C2         -7.6551    0.4436   51.4822 C.1     1  ZINC000481050680    0.2500
      3 C3         -8.4520    0.2908   52.6622 C.ar    1  ZINC000481050680    0.0200
      4 C4         -8.2581    1.1394   53.7537 C.ar    1  ZINC000481050680   -0.0800
      5 C5         -9.0290    0.9881   54.8880 C.ar    1  ZINC000481050680   -0.0800
      6 C6         -9.9930   -0.0018   54.9465 C.ar    1  ZINC000481050680   -0.1000
      7 C7        -10.8310   -0.1606   56.1889 C.3     1  ZINC000481050680   -0.5900
      8 S8         -9.8662   -1.0179   57.4636 S.o2    1  ZINC000481050680    2.6000
      9 O9        -10.0220   -2.4252   57.3446 O.2     1  ZINC000481050680   -0.9300
     10 O10        -8.5782   -0.4315   57.5926 O.2     1  ZINC000481050680   -0.9400
     11 N11       -10.6305   -0.6410   58.8835 N.am    1  ZINC000481050680   -1.1100
     12 C12       -10.1209   -1.1678   60.1520 C.3     1  ZINC000481050680    0.2100
     13 H13        -9.0550   -1.3750   60.0572 H       1  ZINC000481050680    0.1000
     14 C14       -10.8624   -2.4595   60.5024 C.3     1  ZINC000481050680   -0.0800
     15 C15       -12.3474   -2.2360   60.3771 C.ar    1  ZINC000481050680   -0.0900
     16 C16       -13.0657   -1.7467   61.4520 C.ar    1  ZINC000481050680   -0.1200
     17 C17       -14.4280   -1.5418   61.3373 C.ar    1  ZINC000481050680   -0.1200
     18 C18       -15.0718   -1.8257   60.1474 C.ar    1  ZINC000481050680   -0.1200
     19 C19       -14.3533   -2.3143   59.0722 C.ar    1  ZINC000481050680   -0.1200
     20 C20       -12.9903   -2.5151   59.1856 C.ar    1  ZINC000481050680   -0.1200
     21 C21       -10.3400   -0.1511   61.2424 C.ar    1  ZINC000481050680   -0.1300
     22 C22       -11.2513    0.8716   61.0610 C.ar    1  ZINC000481050680   -0.0700
     23 C23       -11.4525    1.8046   62.0614 C.ar    1  ZINC000481050680   -0.1300
     24 C24       -10.7421    1.7158   63.2437 C.ar    1  ZINC000481050680   -0.0900
     25 C25        -9.8296    0.6940   63.4273 C.ar    1  ZINC000481050680   -0.1500
     26 C26        -9.6321   -0.2446   62.4290 C.ar    1  ZINC000481050680    0.1100
     27 F27        -8.7405   -1.2438   62.6074 F       1  ZINC000481050680   -0.1400
     28 C28       -10.1921   -0.8480   53.8670 C.ar    1  ZINC000481050680    0.1200
     29 F29       -11.1361   -1.8125   53.9311 F       1  ZINC000481050680   -0.1200
     30 C30        -9.4301   -0.7037   52.7237 C.ar    1  ZINC000481050680   -0.1000
     31 H31        -7.5056    1.9130   53.7105 H       1  ZINC000481050680    0.1500
     32 H32        -8.8790    1.6443   55.7327 H       1  ZINC000481050680    0.1500
     33 H33       -11.1261    0.8223   56.5562 H       1  ZINC000481050680    0.1500
     34 H34       -11.7218   -0.7432   55.9542 H       1  ZINC000481050680    0.1500
     35 H35       -11.4156   -0.0712   58.8753 H       1  ZINC000481050680    0.4200
     36 H36       -10.5552   -3.2513   59.8193 H       1  ZINC000481050680    0.0900
     37 H37       -10.6235   -2.7493   61.5255 H       1  ZINC000481050680    0.0900
     38 H38       -12.5628   -1.5248   62.3817 H       1  ZINC000481050680    0.1200
     39 H39       -14.9893   -1.1601   62.1772 H       1  ZINC000481050680    0.1200
     40 H40       -16.1362   -1.6663   60.0579 H       1  ZINC000481050680    0.1200
     41 H41       -14.8564   -2.5365   58.1427 H       1  ZINC000481050680    0.1200
     42 H42       -12.4290   -2.8968   58.3456 H       1  ZINC000481050680    0.1200
     43 H43       -11.8064    0.9423   60.1373 H       1  ZINC000481050680    0.1300
     44 H44       -12.1651    2.6035   61.9187 H       1  ZINC000481050680    0.1300
     45 H45       -10.8998    2.4454   64.0244 H       1  ZINC000481050680    0.1300
     46 H46        -9.2742    0.6252   64.3510 H       1  ZINC000481050680    0.1400
     47 H47        -9.5854   -1.3630   51.8826 H       1  ZINC000481050680    0.1600
@<TRIPOS>BOND
     1     1     2    3
     2     2     3    1
     3     3    30   ar
     4     3     4   ar
     5     4     5   ar
     6     4    31    1
     7     5     6   ar
     8     5    32    1
     9     6     7    1
    10     6    28   ar
    11     7     8    1
    12     7    33    1
    13     7    34    1
    14     8     9    2
    15     8    10    2
    16     8    11   am
    17    11    12    1
    18    11    35    1
    19    12    13    1
    20    12    14    1
    21    12    21    1
    22    14    15    1
    23    14    36    1
    24    14    37    1
    25    15    20   ar
    26    15    16   ar
    27    16    17   ar
    28    16    38    1
    29    17    18   ar
    30    17    39    1
    31    18    19   ar
    32    18    40    1
    33    19    20   ar
    34    19    41    1
    35    20    42    1
    36    21    26   ar
    37    21    22   ar
    38    22    23   ar
    39    22    43    1
    40    23    24   ar
    41    23    44    1
    42    24    25   ar
    43    24    45    1
    44    25    26   ar
    45    25    46    1
    46    26    27    1
    47    28    29    1
    48    28    30   ar
    49    30    47    1
@<TRIPOS>SUBSTRUCTURE
     1 ZINC000481050680        1 TEMP              0 ****  ****    0 ROOT


##########                                Name:    ZINC000971513996
##########                DOCK_Rotatable_Bonds:                   6
##########                         Heavy_Atoms:                  27
##########                    Molecular_Weight:             369.464
##########                DOCK_Rotatable_Bonds:                   6
##########                       Formal_Charge:          -0.0300002
##########                     HBond_Acceptors:                   6
##########                        HBond_Donors:                   1
##########                         Heavy_Atoms:                  27
##########                          Grid_Score:          -32.185970
##########                     Grid_vdw_energy:          -31.603716
##########                      Grid_es_energy:           -0.582253
##########           Internal_energy_repulsive:           23.015045

@<TRIPOS>MOLECULE
ZINC000971513996
 54 57 1 0 0
SMALL
USER_CHARGES


@<TRIPOS>ATOM
      1 C1        -14.2407   -2.9656   60.1457 C.3     1  ZINC000971513996   -0.1600
      2 C2        -13.8787   -1.8626   61.1424 C.3     1  ZINC000971513996   -0.1400
      3 C3        -13.6231   -0.5567   60.3874 C.3     1  ZINC000971513996    0.0800
      4 H4        -14.5382   -0.2421   59.8857 H       1  ZINC000971513996    0.0800
      5 O5        -13.2138    0.4548   61.3101 O.3     1  ZINC000971513996   -0.3600
      6 C6        -14.2230    0.8255   62.2515 C.3     1  ZINC000971513996    0.0200
      7 C7        -12.5380   -0.7721   59.3642 C.2     1  ZINC000971513996    0.5400
      8 O8        -12.8268   -0.9171   58.1953 O.2     1  ZINC000971513996   -0.5100
      9 N9        -11.2464   -0.8035   59.7481 N.am    1  ZINC000971513996   -0.6400
     10 C10       -10.5037   -0.6749   61.0134 C.3     1  ZINC000971513996    0.1000
     11 C11        -9.4208   -1.5798   60.3950 C.3     1  ZINC000971513996   -0.1200
     12 H12        -8.3949   -1.3074   60.6432 H       1  ZINC000971513996    0.1100
     13 C13        -9.7382   -3.0609   60.6153 C.3     1  ZINC000971513996   -0.1200
     14 C14        -9.3331   -3.8539   59.3693 C.3     1  ZINC000971513996    0.1100
     15 N15       -10.0661   -3.3120   58.2220 N.am    1  ZINC000971513996   -0.6000
     16 C16       -10.8384   -4.1271   57.4766 C.2     1  ZINC000971513996    0.5900
     17 O17       -10.9251   -5.3075   57.7574 O.2     1  ZINC000971513996   -0.5200
     18 C18       -11.5766   -3.5895   56.3239 C.2     1  ZINC000971513996    0.0200
     19 C19       -11.0834   -3.4577   55.0648 C.2     1  ZINC000971513996   -0.1000
     20 C20       -12.1061   -2.9043   54.2569 C.ar    1  ZINC000971513996   -0.1100
     21 C21       -12.1780   -2.5519   52.9033 C.ar    1  ZINC000971513996   -0.0600
     22 C22       -13.3319   -2.0259   52.3991 C.ar    1  ZINC000971513996   -0.1200
     23 C23       -13.4059   -1.6477   50.9422 C.3     1  ZINC000971513996   -0.1100
     24 C24       -14.4391   -1.8363   53.2161 C.ar    1  ZINC000971513996   -0.0800
     25 C25       -14.3934   -2.1749   54.5501 C.ar    1  ZINC000971513996   -0.1300
     26 C26       -13.2276   -2.7126   55.0879 C.ar    1  ZINC000971513996    0.1100
     27 N27       -12.8840   -3.1436   56.3475 N.pl3   1  ZINC000971513996   -0.5800
     28 C28        -9.9668   -1.8990   57.8808 C.3     1  ZINC000971513996    0.0700
     29 C29        -9.9477   -0.9875   59.0963 C.3     1  ZINC000971513996    0.1300
     30 H30        -9.4789   -0.0310   58.8654 H       1  ZINC000971513996    0.1100
     31 H31       -14.3207   -3.9176   60.6705 H       1  ZINC000971513996    0.0600
     32 H32       -15.1943   -2.7298   59.6733 H       1  ZINC000971513996    0.0600
     33 H33       -13.4649   -3.0351   59.3832 H       1  ZINC000971513996    0.0600
     34 H34       -14.7015   -1.7221   61.8434 H       1  ZINC000971513996    0.0800
     35 H35       -12.9801   -2.1479   61.6895 H       1  ZINC000971513996    0.0800
     36 H36       -15.0529    1.2991   61.7270 H       1  ZINC000971513996    0.0400
     37 H37       -14.5810   -0.0641   62.7696 H       1  ZINC000971513996    0.0500
     38 H38       -13.8049    1.5244   62.9760 H       1  ZINC000971513996    0.0900
     39 H39       -10.1599    0.3397   61.2151 H       1  ZINC000971513996    0.0900
     40 H40       -11.0133   -1.1258   61.8649 H       1  ZINC000971513996    0.0800
     41 H41        -9.1817   -3.4282   61.4775 H       1  ZINC000971513996    0.0900
     42 H42       -10.8070   -3.1818   60.7922 H       1  ZINC000971513996    0.0700
     43 H43        -8.2608   -3.7524   59.2016 H       1  ZINC000971513996    0.0800
     44 H44        -9.5866   -4.9054   59.5043 H       1  ZINC000971513996    0.1000
     45 H45       -10.0896   -3.7268   54.7387 H       1  ZINC000971513996    0.1500
     46 H46       -11.3223   -2.6955   52.2603 H       1  ZINC000971513996    0.1200
     47 H47       -13.7548   -2.5022   50.3622 H       1  ZINC000971513996    0.0700
     48 H48       -14.0996   -0.8162   50.8173 H       1  ZINC000971513996    0.0600
     49 H49       -12.4167   -1.3512   50.5931 H       1  ZINC000971513996    0.0600
     50 H50       -15.3447   -1.4190   52.8012 H       1  ZINC000971513996    0.1300
     51 H51       -15.2594   -2.0234   55.1774 H       1  ZINC000971513996    0.1200
     52 H52       -13.4638   -3.1350   57.1250 H       1  ZINC000971513996    0.4200
     53 H53        -9.0460   -1.7370   57.3205 H       1  ZINC000971513996    0.0800
     54 H54       -10.8123   -1.6306   57.2473 H       1  ZINC000971513996    0.1200
@<TRIPOS>BOND
     1     1     2    1
     2     1    31    1
     3     1    32    1
     4     1    33    1
     5     2     3    1
     6     2    34    1
     7     2    35    1
     8     3     4    1
     9     3     5    1
    10     3     7    1
    11     5     6    1
    12     6    36    1
    13     6    37    1
    14     6    38    1
    15     7     8    2
    16     7     9   am
    17     9    29    1
    18     9    10    1
    19    10    11    1
    20    10    39    1
    21    10    40    1
    22    11    12    1
    23    11    29    1
    24    11    13    1
    25    13    14    1
    26    13    41    1
    27    13    42    1
    28    14    15    1
    29    14    43    1
    30    14    44    1
    31    15    16   am
    32    15    28    1
    33    16    17    2
    34    16    18    1
    35    18    27    1
    36    18    19    2
    37    19    20    1
    38    19    45    1
    39    20    26   ar
    40    20    21   ar
    41    21    22   ar
    42    21    46    1
    43    22    23    1
    44    22    24   ar
    45    23    47    1
    46    23    48    1
    47    23    49    1
    48    24    25   ar
    49    24    50    1
    50    25    26   ar
    51    25    51    1
    52    26    27    1
    53    27    52    1
    54    28    29    1
    55    28    53    1
    56    28    54    1
    57    29    30    1
@<TRIPOS>SUBSTRUCTURE
     1 ZINC000971513996        1 TEMP              0 ****  ****    0 ROOT


##########                                Name:    ZINC001312809190
##########                DOCK_Rotatable_Bonds:                   6
##########                         Heavy_Atoms:                  29
##########                    Molecular_Weight:             395.501
##########                DOCK_Rotatable_Bonds:                   6
##########                       Formal_Charge:           0.0199995
##########                     HBond_Acceptors:                   6
##########                        HBond_Donors:                   1
##########                         Heavy_Atoms:                  29
##########                          Grid_Score:          -32.141853
##########                     Grid_vdw_energy:          -31.664808
##########                      Grid_es_energy:           -0.477047
##########           Internal_energy_repulsive:           32.689522

@<TRIPOS>MOLECULE
ZINC001312809190
 58 61 1 0 0
SMALL
USER_CHARGES


@<TRIPOS>ATOM
      1 C1        -14.9477   -3.7296   58.7270 C.3     1  ZINC001312809190    0.0300
      2 O2        -15.1243   -2.9844   59.9335 O.3     1  ZINC001312809190   -0.3200
      3 C3        -14.0226   -2.3821   60.4534 C.ar    1  ZINC001312809190    0.1300
      4 C4        -14.0978   -1.7329   61.6768 C.ar    1  ZINC001312809190   -0.2100
      5 C5        -12.9761   -1.1218   62.2035 C.ar    1  ZINC001312809190   -0.0800
      6 C6        -11.7797   -1.1564   61.5118 C.ar    1  ZINC001312809190   -0.1300
      7 C7        -11.7022   -1.8026   60.2916 C.ar    1  ZINC001312809190   -0.0500
      8 C8        -10.3964   -1.8380   59.5401 C.3     1  ZINC001312809190    0.1200
      9 H9        -10.3065   -2.7876   59.0125 H       1  ZINC001312809190    0.0500
     10 C10        -9.2361   -1.6907   60.5264 C.3     1  ZINC001312809190   -0.1400
     11 N11       -10.3588   -0.7343   58.5714 N.3     1  ZINC001312809190   -0.5300
     12 C12        -9.3153   -0.9556   57.5614 C.3     1  ZINC001312809190    0.0300
     13 C13        -9.4269    0.1171   56.4728 C.3     1  ZINC001312809190    0.1400
     14 N14        -9.3997    1.4397   57.1156 N.am    1  ZINC001312809190   -0.6300
     15 C15        -8.5495    2.3965   56.6937 C.2     1  ZINC001312809190    0.7100
     16 O16        -8.5406    3.4843   57.2369 O.2     1  ZINC001312809190   -0.5800
     17 N17        -7.7091    2.1475   55.6699 N.am    1  ZINC001312809190   -0.7300
     18 C18        -6.7850    3.1876   55.2113 C.3     1  ZINC001312809190    0.1800
     19 H19        -7.1867    4.1802   55.4149 H       1  ZINC001312809190    0.1200
     20 C20        -5.4180    3.0157   55.8449 C.ar    1  ZINC001312809190   -0.1900
     21 C21        -5.0238    2.7776   57.1426 C.ar    1  ZINC001312809190   -0.0500
     22 C22        -3.6789    2.6546   57.4451 C.ar    1  ZINC001312809190   -0.1500
     23 C23        -2.7359    2.7717   56.4411 C.ar    1  ZINC001312809190   -0.0800
     24 C24        -3.1286    3.0139   55.1407 C.ar    1  ZINC001312809190   -0.1400
     25 C25        -4.4795    3.1423   54.8285 C.ar    1  ZINC001312809190    0.1100
     26 O26        -5.0790    3.3966   53.6329 O.3     1  ZINC001312809190   -0.2900
     27 C27        -6.4648    3.0186   53.7072 C.3     1  ZINC001312809190    0.0800
     28 H28        -6.5994    1.9820   53.3982 H       1  ZINC001312809190    0.0900
     29 C29        -7.3276    3.9521   52.8559 C.3     1  ZINC001312809190   -0.1500
     30 C30       -10.3255    1.6906   58.2307 C.3     1  ZINC001312809190    0.1200
     31 C31       -10.1785    0.5559   59.2501 C.3     1  ZINC001312809190    0.0400
     32 C32       -12.8191   -2.4204   59.7638 C.ar    1  ZINC001312809190   -0.1500
     33 H33       -15.9026   -4.1572   58.4211 H       1  ZINC001312809190    0.1000
     34 H34       -14.5774   -3.0692   57.9429 H       1  ZINC001312809190    0.0600
     35 H35       -14.2286   -4.5309   58.8968 H       1  ZINC001312809190    0.0600
     36 H36       -15.0324   -1.7049   62.2172 H       1  ZINC001312809190    0.1300
     37 H37       -13.0342   -0.6162   63.1560 H       1  ZINC001312809190    0.1300
     38 H38       -10.9041   -0.6779   61.9249 H       1  ZINC001312809190    0.1300
     39 H39        -9.3260   -0.7410   61.0540 H       1  ZINC001312809190    0.0700
     40 H40        -9.2640   -2.5096   61.2452 H       1  ZINC001312809190    0.0600
     41 H41        -8.2917   -1.7163   59.9828 H       1  ZINC001312809190    0.0600
     42 H42        -8.3342   -0.8948   58.0327 H       1  ZINC001312809190    0.0400
     43 H43        -9.4443   -1.9417   57.1151 H       1  ZINC001312809190    0.1000
     44 H44        -8.5875    0.0277   55.7833 H       1  ZINC001312809190    0.1000
     45 H45       -10.3644   -0.0075   55.9308 H       1  ZINC001312809190    0.0700
     46 H46        -7.7162    1.2796   55.2367 H       1  ZINC001312809190    0.4000
     47 H47        -5.7638    2.6871   57.9240 H       1  ZINC001312809190    0.1200
     48 H48        -3.3672    2.4681   58.4622 H       1  ZINC001312809190    0.1300
     49 H49        -1.6864    2.6735   56.6757 H       1  ZINC001312809190    0.1300
     50 H50        -2.3855    3.1044   54.3623 H       1  ZINC001312809190    0.1300
     51 H51        -7.0206    3.8798   51.8125 H       1  ZINC001312809190    0.0800
     52 H52        -8.3746    3.6634   52.9475 H       1  ZINC001312809190    0.0800
     53 H53        -7.2021    4.9784   53.2011 H       1  ZINC001312809190    0.0700
     54 H54       -10.0800    2.6416   58.7034 H       1  ZINC001312809190    0.0800
     55 H55       -11.3493    1.7172   57.8577 H       1  ZINC001312809190    0.0800
     56 H56       -10.9335    0.6662   60.0285 H       1  ZINC001312809190    0.0900
     57 H57        -9.1854    0.5956   59.6978 H       1  ZINC001312809190    0.0400
     58 H58       -12.7580   -2.9252   58.8110 H       1  ZINC001312809190    0.1300
@<TRIPOS>BOND
     1     1     2    1
     2     1    33    1
     3     1    34    1
     4     1    35    1
     5     2     3    1
     6     3    32   ar
     7     3     4   ar
     8     4     5   ar
     9     4    36    1
    10     5     6   ar
    11     5    37    1
    12     6     7   ar
    13     6    38    1
    14     7     8    1
    15     7    32   ar
    16     8     9    1
    17     8    10    1
    18     8    11    1
    19    10    39    1
    20    10    40    1
    21    10    41    1
    22    11    31    1
    23    11    12    1
    24    12    13    1
    25    12    42    1
    26    12    43    1
    27    13    14    1
    28    13    44    1
    29    13    45    1
    30    14    15   am
    31    14    30    1
    32    15    16    2
    33    15    17   am
    34    17    18    1
    35    17    46    1
    36    18    19    1
    37    18    27    1
    38    18    20    1
    39    20    25   ar
    40    20    21   ar
    41    21    22   ar
    42    21    47    1
    43    22    23   ar
    44    22    48    1
    45    23    24   ar
    46    23    49    1
    47    24    25   ar
    48    24    50    1
    49    25    26    1
    50    26    27    1
    51    27    28    1
    52    27    29    1
    53    29    51    1
    54    29    52    1
    55    29    53    1
    56    30    31    1
    57    30    54    1
    58    30    55    1
    59    31    56    1
    60    31    57    1
    61    32    58    1
@<TRIPOS>SUBSTRUCTURE
     1 ZINC001312809190        1 TEMP              0 ****  ****    0 ROOT


##########                                Name:    ZINC000032503012
##########                DOCK_Rotatable_Bonds:                   8
##########                         Heavy_Atoms:                  27
##########                    Molecular_Weight:             390.503
##########                DOCK_Rotatable_Bonds:                   8
##########                       Formal_Charge:           0.0099995
##########                     HBond_Acceptors:                   7
##########                        HBond_Donors:                   2
##########                         Heavy_Atoms:                  27
##########                          Grid_Score:          -32.140800
##########                     Grid_vdw_energy:          -31.534672
##########                      Grid_es_energy:           -0.606127
##########           Internal_energy_repulsive:           38.445427

@<TRIPOS>MOLECULE
ZINC000032503012
 53 54 1 0 0
SMALL
USER_CHARGES


@<TRIPOS>ATOM
      1 C1         -8.7375    0.0669   64.3100 C.3     1  ZINC000032503012   -0.1200
      2 C2         -9.5539    0.6705   63.1964 C.ar    1  ZINC000032503012   -0.0500
      3 C3         -9.9875    1.9799   63.2895 C.ar    1  ZINC000032503012   -0.1600
      4 C4        -10.7369    2.5368   62.2694 C.ar    1  ZINC000032503012   -0.0700
      5 C5        -11.0539    1.7856   61.1544 C.ar    1  ZINC000032503012   -0.1500
      6 C6        -10.6198    0.4712   61.0586 C.ar    1  ZINC000032503012    0.1300
      7 O7        -10.9301   -0.2699   59.9624 O.3     1  ZINC000032503012   -0.2800
      8 C8        -11.1659   -1.6642   60.1675 C.3     1  ZINC000032503012    0.0700
      9 H9        -10.3259   -2.0990   60.7094 H       1  ZINC000032503012    0.1100
     10 C10       -12.4486   -1.8504   60.9805 C.3     1  ZINC000032503012   -0.1800
     11 C11       -11.3125   -2.3503   58.8338 C.2     1  ZINC000032503012    0.5200
     12 O12       -10.3328   -2.5678   58.1527 O.2     1  ZINC000032503012   -0.4900
     13 N13       -12.5323   -2.7224   58.3978 N.am    1  ZINC000032503012   -0.6700
     14 C14       -12.6685   -3.3594   57.1594 C.ar    1  ZINC000032503012    0.1300
     15 C15       -13.3145   -4.5857   57.0753 C.ar    1  ZINC000032503012   -0.0600
     16 C16       -13.4473   -5.2121   55.8514 C.ar    1  ZINC000032503012   -0.1200
     17 C17       -12.9375   -4.6196   54.7109 C.ar    1  ZINC000032503012   -0.0300
     18 C18       -12.2932   -3.3985   54.7914 C.ar    1  ZINC000032503012   -0.6600
     19 S19       -11.6451   -2.6477   53.3350 S.o2    1  ZINC000032503012    2.7000
     20 O20       -11.2107   -1.3484   53.7128 O.2     1  ZINC000032503012   -0.9600
     21 O21       -10.7887   -3.6096   52.7347 O.2     1  ZINC000032503012   -0.9500
     22 N22       -12.9113   -2.4319   52.2898 N.am    1  ZINC000032503012   -1.1100
     23 C23       -14.0515   -1.5999   52.6822 C.3     1  ZINC000032503012    0.1700
     24 C24       -13.5497   -0.3784   53.4548 C.3     1  ZINC000032503012   -0.1900
     25 C25       -14.8013   -1.1392   51.4307 C.3     1  ZINC000032503012   -0.1500
     26 C26       -14.9944   -2.4135   53.5711 C.3     1  ZINC000032503012   -0.1800
     27 C27       -12.1629   -2.7639   56.0110 C.ar    1  ZINC000032503012   -0.0400
     28 C28        -9.8635   -0.0833   62.0807 C.ar    1  ZINC000032503012   -0.2100
     29 H29        -7.6787    0.2437   64.1214 H       1  ZINC000032503012    0.0700
     30 H30        -9.0195    0.5262   65.2574 H       1  ZINC000032503012    0.0700
     31 H31        -8.9239   -1.0061   64.3567 H       1  ZINC000032503012    0.0700
     32 H32        -9.7411    2.5687   64.1606 H       1  ZINC000032503012    0.1300
     33 H33       -11.0748    3.5598   62.3446 H       1  ZINC000032503012    0.1300
     34 H34       -11.6394    2.2208   60.3581 H       1  ZINC000032503012    0.1300
     35 H35       -12.3425   -1.3542   61.9452 H       1  ZINC000032503012    0.0800
     36 H36       -13.2884   -1.4157   60.4387 H       1  ZINC000032503012    0.0800
     37 H37       -12.6284   -2.9140   61.1369 H       1  ZINC000032503012    0.0800
     38 H38       -13.3160   -2.5484   58.9425 H       1  ZINC000032503012    0.4100
     39 H39       -13.7124   -5.0493   57.9659 H       1  ZINC000032503012    0.1400
     40 H40       -13.9497   -6.1658   55.7852 H       1  ZINC000032503012    0.1400
     41 H41       -13.0424   -5.1116   53.7552 H       1  ZINC000032503012    0.1500
     42 H42       -12.8980   -2.8563   51.4177 H       1  ZINC000032503012    0.4200
     43 H43       -12.7472    0.1014   52.8944 H       1  ZINC000032503012    0.0700
     44 H44       -14.3693    0.3269   53.5916 H       1  ZINC000032503012    0.0800
     45 H45       -13.1748   -0.6933   54.4287 H       1  ZINC000032503012    0.0700
     46 H46       -15.1589   -2.0093   50.8803 H       1  ZINC000032503012    0.0700
     47 H47       -15.6497   -0.5202   51.7227 H       1  ZINC000032503012    0.0700
     48 H48       -14.1296   -0.5595   50.7975 H       1  ZINC000032503012    0.0600
     49 H49       -14.5294   -2.5728   54.5440 H       1  ZINC000032503012    0.0900
     50 H50       -15.9306   -1.8703   53.7005 H       1  ZINC000032503012    0.0700
     51 H51       -15.1950   -3.3767   53.1021 H       1  ZINC000032503012    0.0600
     52 H52       -11.6596   -1.8104   56.0733 H       1  ZINC000032503012    0.1400
     53 H53        -9.5245   -1.1062   62.0084 H       1  ZINC000032503012    0.1300
@<TRIPOS>BOND
     1     1     2    1
     2     1    29    1
     3     1    30    1
     4     1    31    1
     5     2    28   ar
     6     2     3   ar
     7     3     4   ar
     8     3    32    1
     9     4     5   ar
    10     4    33    1
    11     5     6   ar
    12     5    34    1
    13     6     7    1
    14     6    28   ar
    15     7     8    1
    16     8     9    1
    17     8    10    1
    18     8    11    1
    19    10    35    1
    20    10    36    1
    21    10    37    1
    22    11    12    2
    23    11    13   am
    24    13    14    1
    25    13    38    1
    26    14    27   ar
    27    14    15   ar
    28    15    16   ar
    29    15    39    1
    30    16    17   ar
    31    16    40    1
    32    17    18   ar
    33    17    41    1
    34    18    19    1
    35    18    27   ar
    36    19    20    2
    37    19    21    2
    38    19    22   am
    39    22    23    1
    40    22    42    1
    41    23    24    1
    42    23    25    1
    43    23    26    1
    44    24    43    1
    45    24    44    1
    46    24    45    1
    47    25    46    1
    48    25    47    1
    49    25    48    1
    50    26    49    1
    51    26    50    1
    52    26    51    1
    53    27    52    1
    54    28    53    1
@<TRIPOS>SUBSTRUCTURE
     1 ZINC000032503012        1 TEMP              0 ****  ****    0 ROOT


##########                                Name:    ZINC000542980334
##########                DOCK_Rotatable_Bonds:                   6
##########                         Heavy_Atoms:                  27
##########                    Molecular_Weight:             404.795
##########                DOCK_Rotatable_Bonds:                   6
##########                       Formal_Charge:           0.0300001
##########                     HBond_Acceptors:                  10
##########                        HBond_Donors:                   1
##########                         Heavy_Atoms:                  27
##########                          Grid_Score:          -32.107018
##########                     Grid_vdw_energy:          -31.250956
##########                      Grid_es_energy:           -0.856063
##########           Internal_energy_repulsive:           12.206244

@<TRIPOS>MOLECULE
ZINC000542980334
 44 46 1 0 0
SMALL
USER_CHARGES


@<TRIPOS>ATOM
      1 O1        -13.3572   -3.8204   56.0225 O.2     1  ZINC000542980334   -0.5800
      2 C2        -12.4456   -3.0214   55.9282 C.2     1  ZINC000542980334    0.7100
      3 N3        -11.5613   -2.8859   56.9362 N.am    1  ZINC000542980334   -0.7400
      4 C4        -11.7018   -3.6971   58.1480 C.3     1  ZINC000542980334    0.1800
      5 C5        -11.0273   -2.9992   59.3008 C.ar    1  ZINC000542980334   -0.1400
      6 C6         -9.8000   -3.4464   59.7586 C.ar    1  ZINC000542980334    0.1300
      7 F7         -9.2060   -4.5088   59.1722 F       1  ZINC000542980334   -0.1200
      8 C8         -9.1809   -2.8039   60.8177 C.ar    1  ZINC000542980334   -0.1500
      9 C9         -9.7884   -1.7170   61.4169 C.ar    1  ZINC000542980334   -0.0700
     10 C10       -11.0142   -1.2704   60.9598 C.ar    1  ZINC000542980334   -0.1200
     11 C11       -11.6317   -1.9078   59.8984 C.ar    1  ZINC000542980334    0.0100
     12 Cl12      -13.1707   -1.3458   59.3246 Cl      1  ZINC000542980334   -0.0400
     13 N13       -12.3163   -2.2750   54.8134 N.am    1  ZINC000542980334   -0.6300
     14 C14       -13.2724   -2.4115   53.7063 C.3     1  ZINC000542980334    0.1100
     15 C15       -12.4953   -2.6840   52.4145 C.3     1  ZINC000542980334   -0.1300
     16 C16       -11.4505   -1.5844   52.2109 C.3     1  ZINC000542980334   -0.1300
     17 C17       -10.4629   -1.5940   53.3799 C.3     1  ZINC000542980334    0.1400
     18 H18        -9.9835   -2.5709   53.4432 H       1  ZINC000542980334    0.1100
     19 N19        -9.4444   -0.5625   53.1680 N.pl3   1  ZINC000542980334   -0.3400
     20 C20        -8.9785    0.2962   54.0991 C.2     1  ZINC000542980334    0.0600
     21 C21        -8.0518    1.0843   53.5063 C.2     1  ZINC000542980334   -0.2300
     22 C22        -7.9479    0.6939   52.1672 C.2     1  ZINC000542980334   -0.0200
     23 C23        -7.0330    1.3046   51.1372 C.3     1  ZINC000542980334    0.5600
     24 F24        -5.9192    1.8616   51.7747 F       1  ZINC000542980334   -0.1700
     25 F25        -6.6118    0.3152   50.2423 F       1  ZINC000542980334   -0.1700
     26 F26        -7.7186    2.3040   50.4384 F       1  ZINC000542980334   -0.1600
     27 N27        -8.7779   -0.2971   51.9649 N.2     1  ZINC000542980334   -0.2300
     28 C28       -11.2202   -1.3052   54.6849 C.3     1  ZINC000542980334    0.1300
     29 H29       -10.8317   -2.2512   56.8594 H       1  ZINC000542980334    0.4000
     30 H30       -12.7595   -3.8326   58.3739 H       1  ZINC000542980334    0.0900
     31 H31       -11.2366   -4.6701   57.9899 H       1  ZINC000542980334    0.0900
     32 H32        -8.2234   -3.1525   61.1757 H       1  ZINC000542980334    0.1500
     33 H33        -9.3055   -1.2164   62.2431 H       1  ZINC000542980334    0.1500
     34 H34       -11.4884   -0.4211   61.4289 H       1  ZINC000542980334    0.1500
     35 H35       -13.9489   -3.2421   53.9079 H       1  ZINC000542980334    0.0800
     36 H36       -13.8440   -1.4893   53.6012 H       1  ZINC000542980334    0.0800
     37 H37       -11.9968   -3.6507   52.4869 H       1  ZINC000542980334    0.0800
     38 H38       -13.1845   -2.6919   51.5701 H       1  ZINC000542980334    0.0900
     39 H39       -10.9127   -1.7625   51.2796 H       1  ZINC000542980334    0.0800
     40 H40       -11.9475   -0.6155   52.1634 H       1  ZINC000542980334    0.0800
     41 H41        -9.2896    0.3458   55.1321 H       1  ZINC000542980334    0.1900
     42 H42        -7.4919    1.8753   53.9828 H       1  ZINC000542980334    0.1600
     43 H43       -11.6226   -0.2925   54.6574 H       1  ZINC000542980334    0.0800
     44 H44       -10.5416   -1.4081   55.5317 H       1  ZINC000542980334    0.1100
@<TRIPOS>BOND
     1     1     2    2
     2     2     3   am
     3     2    13   am
     4     3     4    1
     5     3    29    1
     6     4     5    1
     7     4    30    1
     8     4    31    1
     9     5    11   ar
    10     5     6   ar
    11     6     7    1
    12     6     8   ar
    13     8     9   ar
    14     8    32    1
    15     9    10   ar
    16     9    33    1
    17    10    11   ar
    18    10    34    1
    19    11    12    1
    20    13    28    1
    21    13    14    1
    22    14    15    1
    23    14    35    1
    24    14    36    1
    25    15    16    1
    26    15    37    1
    27    15    38    1
    28    16    17    1
    29    16    39    1
    30    16    40    1
    31    17    18    1
    32    17    19    1
    33    17    28    1
    34    19    27    1
    35    19    20    1
    36    20    21    2
    37    20    41    1
    38    21    22    1
    39    21    42    1
    40    22    23    1
    41    22    27    2
    42    23    24    1
    43    23    25    1
    44    23    26    1
    45    28    43    1
    46    28    44    1
@<TRIPOS>SUBSTRUCTURE
     1 ZINC000542980334        1 TEMP              0 ****  ****    0 ROOT


##########                                Name:    ZINC000579444893
##########                DOCK_Rotatable_Bonds:                   8
##########                         Heavy_Atoms:                  26
##########                    Molecular_Weight:             365.494
##########                DOCK_Rotatable_Bonds:                   8
##########                       Formal_Charge:         -0.00999993
##########                     HBond_Acceptors:                   7
##########                        HBond_Donors:                   1
##########                         Heavy_Atoms:                  26
##########                          Grid_Score:          -32.073025
##########                     Grid_vdw_energy:          -30.948175
##########                      Grid_es_energy:           -1.124848
##########           Internal_energy_repulsive:           30.079674

@<TRIPOS>MOLECULE
ZINC000579444893
 58 60 1 0 0
SMALL
USER_CHARGES


@<TRIPOS>ATOM
      1 C1         -5.7245    3.1846   57.5499 C.3     1  ZINC000579444893   -0.1600
      2 C2         -6.8180    2.7748   56.5613 C.3     1  ZINC000579444893    0.1700
      3 H3         -6.4901    1.9009   55.9984 H       1  ZINC000579444893    0.0900
      4 N4         -8.0436    2.4511   57.2955 N.am    1  ZINC000579444893   -0.7400
      5 C5         -8.7393    1.3384   56.9884 C.2     1  ZINC000579444893    0.7100
      6 O6         -8.3503    0.6039   56.1007 O.2     1  ZINC000579444893   -0.5900
      7 N7         -9.8659    1.0397   57.6649 N.am    1  ZINC000579444893   -0.6300
      8 C8        -10.3335    1.9235   58.7356 C.3     1  ZINC000579444893    0.0800
      9 C9        -10.6230   -0.1689   57.3298 C.3     1  ZINC000579444893    0.1100
     10 C10       -10.6851   -1.0872   58.5520 C.3     1  ZINC000579444893    0.0600
     11 H11       -11.1875   -0.5770   59.3738 H       1  ZINC000579444893    0.1000
     12 C12        -9.2580   -1.4906   58.9787 C.3     1  ZINC000579444893   -0.1600
     13 C13        -9.4255   -2.9741   59.4006 C.3     1  ZINC000579444893    0.0800
     14 H14        -9.7982   -3.0498   60.4221 H       1  ZINC000579444893    0.1000
     15 F15        -8.2236   -3.6752   59.2553 F       1  ZINC000579444893   -0.2000
     16 C16       -10.4848   -3.4705   58.3852 C.3     1  ZINC000579444893    0.0200
     17 N17       -11.4097   -2.3257   58.2127 N.3     1  ZINC000579444893   -0.5000
     18 C18       -11.9303   -2.2717   56.8401 C.3     1  ZINC000579444893    0.1000
     19 C19       -12.6749   -3.5457   56.5347 C.2     1  ZINC000579444893    0.0800
     20 C20       -13.3950   -4.2794   57.4146 C.2     1  ZINC000579444893   -0.2500
     21 C21       -13.9216   -5.3789   56.7288 C.2     1  ZINC000579444893    0.0400
     22 N22       -13.5315   -5.3078   55.4818 N.2     1  ZINC000579444893   -0.2900
     23 N23       -12.7477   -4.1563   55.3335 N.pl3   1  ZINC000579444893   -0.3700
     24 C24       -12.1117   -3.7003   54.0950 C.3     1  ZINC000579444893    0.0900
     25 C25        -7.0918    3.9299   55.5959 C.3     1  ZINC000579444893   -0.1000
     26 C26        -5.8084    4.2945   54.8091 C.3     1  ZINC000579444893   -0.1200
     27 C27        -6.3698    4.9778   53.5375 C.3     1  ZINC000579444893   -0.1300
     28 C28        -7.6346    4.1629   53.1971 C.3     1  ZINC000579444893   -0.1300
     29 C29        -8.0936    3.4966   54.5059 C.3     1  ZINC000579444893   -0.1200
     30 H30        -5.5937    2.3985   58.2934 H       1  ZINC000579444893    0.0600
     31 H31        -4.7879    3.3364   57.0132 H       1  ZINC000579444893    0.0700
     32 H32        -6.0126    4.1108   58.0470 H       1  ZINC000579444893    0.0500
     33 H33        -8.3545    3.0376   58.0028 H       1  ZINC000579444893    0.4000
     34 H34       -10.9251    2.7323   58.3066 H       1  ZINC000579444893    0.0600
     35 H35       -10.9477    1.3550   59.4339 H       1  ZINC000579444893    0.0800
     36 H36        -9.4757    2.3410   59.2627 H       1  ZINC000579444893    0.0700
     37 H37       -11.6342    0.1070   57.0309 H       1  ZINC000579444893    0.0900
     38 H38       -10.1309   -0.6900   56.5086 H       1  ZINC000579444893    0.0900
     39 H39        -8.5663   -1.4040   58.1408 H       1  ZINC000579444893    0.1100
     40 H40        -8.9222   -0.8859   59.8210 H       1  ZINC000579444893    0.0800
     41 H41       -10.0115   -3.7239   57.4365 H       1  ZINC000579444893    0.0600
     42 H42       -11.0197   -4.3317   58.7853 H       1  ZINC000579444893    0.0900
     43 H43       -12.6069   -1.4228   56.7413 H       1  ZINC000579444893    0.1100
     44 H44       -11.1013   -2.1588   56.1413 H       1  ZINC000579444893    0.0500
     45 H45       -13.5377   -4.0558   58.4615 H       1  ZINC000579444893    0.1500
     46 H46       -14.5423   -6.1530   57.1550 H       1  ZINC000579444893    0.1800
     47 H47       -12.7729   -3.0011   53.5830 H       1  ZINC000579444893    0.0800
     48 H48       -11.1706   -3.2038   54.3312 H       1  ZINC000579444893    0.0800
     49 H49       -11.9185   -4.5568   53.4491 H       1  ZINC000579444893    0.0900
     50 H50        -7.4690    4.7973   56.1377 H       1  ZINC000579444893    0.0800
     51 H51        -5.1897    4.9877   55.3790 H       1  ZINC000579444893    0.0700
     52 H52        -5.2466    3.3974   54.5494 H       1  ZINC000579444893    0.0700
     53 H53        -6.6293    6.0159   53.7452 H       1  ZINC000579444893    0.0700
     54 H54        -5.6479    4.9198   52.7229 H       1  ZINC000579444893    0.0700
     55 H55        -8.4151    4.8244   52.8211 H       1  ZINC000579444893    0.0600
     56 H56        -7.3994    3.4017   52.4532 H       1  ZINC000579444893    0.0600
     57 H57        -8.0812    2.4121   54.3972 H       1  ZINC000579444893    0.0600
     58 H58        -9.0969    3.8348   54.7651 H       1  ZINC000579444893    0.0600
@<TRIPOS>BOND
     1     1     2    1
     2     1    30    1
     3     1    31    1
     4     1    32    1
     5     2     3    1
     6     2     4    1
     7     2    25    1
     8     4     5   am
     9     4    33    1
    10     5     6    2
    11     5     7   am
    12     7     8    1
    13     7     9    1
    14     8    34    1
    15     8    35    1
    16     8    36    1
    17     9    10    1
    18     9    37    1
    19     9    38    1
    20    10    11    1
    21    10    17    1
    22    10    12    1
    23    12    13    1
    24    12    39    1
    25    12    40    1
    26    13    14    1
    27    13    15    1
    28    13    16    1
    29    16    17    1
    30    16    41    1
    31    16    42    1
    32    17    18    1
    33    18    19    1
    34    18    43    1
    35    18    44    1
    36    19    23    1
    37    19    20    2
    38    20    21    1
    39    20    45    1
    40    21    22    2
    41    21    46    1
    42    22    23    1
    43    23    24    1
    44    24    47    1
    45    24    48    1
    46    24    49    1
    47    25    29    1
    48    25    26    1
    49    25    50    1
    50    26    27    1
    51    26    51    1
    52    26    52    1
    53    27    28    1
    54    27    53    1
    55    27    54    1
    56    28    29    1
    57    28    55    1
    58    28    56    1
    59    29    57    1
    60    29    58    1
@<TRIPOS>SUBSTRUCTURE
     1 ZINC000579444893        1 TEMP              0 ****  ****    0 ROOT


##########                                Name:    ZINC000443394081
##########                DOCK_Rotatable_Bonds:                   8
##########                         Heavy_Atoms:                  27
##########                    Molecular_Weight:             389.878
##########                DOCK_Rotatable_Bonds:                   8
##########                       Formal_Charge:          -0.0300003
##########                     HBond_Acceptors:                   6
##########                        HBond_Donors:                   1
##########                         Heavy_Atoms:                  27
##########                          Grid_Score:          -32.068188
##########                     Grid_vdw_energy:          -31.000097
##########                      Grid_es_energy:           -1.068091
##########           Internal_energy_repulsive:           33.560810

@<TRIPOS>MOLECULE
ZINC000443394081
 51 53 1 0 0
SMALL
USER_CHARGES


@<TRIPOS>ATOM
      1 C1        -14.2975   -5.6329   56.6482 C.3     1  ZINC000443394081    0.0200
      2 O2        -12.8936   -5.4321   56.4718 O.3     1  ZINC000443394081   -0.3000
      3 C3        -12.5054   -4.2698   55.8822 C.ar    1  ZINC000443394081    0.1000
      4 C4        -12.7982   -4.0385   54.5525 C.ar    1  ZINC000443394081   -0.1200
      5 C5        -12.3981   -2.8425   53.9498 C.ar    1  ZINC000443394081   -0.1300
      6 C6        -12.7089   -2.5901   52.5291 C.2     1  ZINC000443394081    0.5700
      7 O7        -11.8428   -2.7178   51.6854 O.2     1  ZINC000443394081   -0.4900
      8 N8        -13.9526   -2.2183   52.1671 N.am    1  ZINC000443394081   -0.6100
      9 C9        -15.0927   -2.0269   53.0820 C.3     1  ZINC000443394081    0.0900
     10 C10       -16.0378   -1.0499   52.3391 C.3     1  ZINC000443394081   -0.1300
     11 C11       -15.8824   -1.5231   50.8697 C.3     1  ZINC000443394081   -0.1000
     12 H12       -16.5300   -2.3764   50.6687 H       1  ZINC000443394081    0.0900
     13 C13       -16.1804   -0.3792   49.8983 C.3     1  ZINC000443394081   -0.1500
     14 C14       -14.3957   -1.9299   50.7952 C.3     1  ZINC000443394081    0.1400
     15 H15       -14.2862   -2.8233   50.1802 H       1  ZINC000443394081    0.0800
     16 C16       -13.5721   -0.7855   50.2013 C.3     1  ZINC000443394081    0.0600
     17 O17       -13.7356   -0.7675   48.7818 O.3     1  ZINC000443394081   -0.5400
     18 C18       -11.7041   -1.8866   54.6949 C.ar    1  ZINC000443394081   -0.1000
     19 C19       -11.4146   -2.1238   56.0215 C.ar    1  ZINC000443394081   -0.1800
     20 C20       -11.8167   -3.3089   56.6217 C.ar    1  ZINC000443394081    0.1300
     21 O21       -11.5292   -3.5379   57.9289 O.3     1  ZINC000443394081   -0.3000
     22 C22       -12.1875   -2.7127   58.8922 C.3     1  ZINC000443394081    0.1000
     23 C23       -11.1703   -2.1525   59.8527 C.ar    1  ZINC000443394081   -0.0800
     24 C24       -10.1368   -2.9494   60.3073 C.ar    1  ZINC000443394081   -0.0800
     25 C25        -9.2036   -2.4356   61.1886 C.ar    1  ZINC000443394081   -0.1100
     26 C26        -9.3038   -1.1249   61.6158 C.ar    1  ZINC000443394081   -0.1000
     27 C27       -10.3372   -0.3268   61.1617 C.ar    1  ZINC000443394081   -0.1100
     28 C28       -11.2677   -0.8384   60.2751 C.ar    1  ZINC000443394081   -0.0300
     29 Cl29      -12.5657    0.1631   59.7044 Cl      1  ZINC000443394081   -0.0700
     30 H30       -14.4692   -6.5962   57.1284 H       1  ZINC000443394081    0.1000
     31 H31       -14.7024   -4.8377   57.2739 H       1  ZINC000443394081    0.0600
     32 H32       -14.7915   -5.6180   55.6766 H       1  ZINC000443394081    0.0600
     33 H33       -13.3347   -4.7802   53.9796 H       1  ZINC000443394081    0.1500
     34 H34       -15.5960   -2.9764   53.2647 H       1  ZINC000443394081    0.0700
     35 H35       -14.7559   -1.5884   54.0213 H       1  ZINC000443394081    0.0800
     36 H36       -17.0665   -1.1662   52.6802 H       1  ZINC000443394081    0.0900
     37 H37       -15.7035   -0.0190   52.4550 H       1  ZINC000443394081    0.0800
     38 H38       -15.5031    0.4514   50.0963 H       1  ZINC000443394081    0.0600
     39 H39       -16.0403   -0.7262   48.8744 H       1  ZINC000443394081    0.0600
     40 H40       -17.2103   -0.0480   50.0319 H       1  ZINC000443394081    0.0600
     41 H41       -13.9132    0.1621   50.6183 H       1  ZINC000443394081    0.0600
     42 H42       -12.5196   -0.9313   50.4440 H       1  ZINC000443394081    0.0400
     43 H43       -13.2982   -0.0240   48.3449 H       1  ZINC000443394081    0.3700
     44 H44       -11.3939   -0.9617   54.2315 H       1  ZINC000443394081    0.1400
     45 H45       -10.8775   -1.3839   56.5964 H       1  ZINC000443394081    0.1400
     46 H46       -12.6955   -1.8939   58.3826 H       1  ZINC000443394081    0.0800
     47 H47       -12.9173   -3.3072   59.4417 H       1  ZINC000443394081    0.0800
     48 H48       -10.0584   -3.9738   59.9744 H       1  ZINC000443394081    0.1400
     49 H49        -8.3960   -3.0587   61.5436 H       1  ZINC000443394081    0.1300
     50 H50        -8.5750   -0.7243   62.3047 H       1  ZINC000443394081    0.1300
     51 H51       -10.4155    0.6974   61.4955 H       1  ZINC000443394081    0.1400
@<TRIPOS>BOND
     1     1     2    1
     2     1    30    1
     3     1    31    1
     4     1    32    1
     5     2     3    1
     6     3    20   ar
     7     3     4   ar
     8     4     5   ar
     9     4    33    1
    10     5     6    1
    11     5    18   ar
    12     6     7    2
    13     6     8   am
    14     8    14    1
    15     8     9    1
    16     9    10    1
    17     9    34    1
    18     9    35    1
    19    10    11    1
    20    10    36    1
    21    10    37    1
    22    11    12    1
    23    11    13    1
    24    11    14    1
    25    13    38    1
    26    13    39    1
    27    13    40    1
    28    14    15    1
    29    14    16    1
    30    16    17    1
    31    16    41    1
    32    16    42    1
    33    17    43    1
    34    18    19   ar
    35    18    44    1
    36    19    20   ar
    37    19    45    1
    38    20    21    1
    39    21    22    1
    40    22    23    1
    41    22    46    1
    42    22    47    1
    43    23    28   ar
    44    23    24   ar
    45    24    25   ar
    46    24    48    1
    47    25    26   ar
    48    25    49    1
    49    26    27   ar
    50    26    50    1
    51    27    28   ar
    52    27    51    1
    53    28    29    1
@<TRIPOS>SUBSTRUCTURE
     1 ZINC000443394081        1 TEMP              0 ****  ****    0 ROOT


##########                                Name:    ZINC001341052241
##########                DOCK_Rotatable_Bonds:                   7
##########                         Heavy_Atoms:                  24
##########                    Molecular_Weight:             336.478
##########                DOCK_Rotatable_Bonds:                   7
##########                       Formal_Charge:         5.96046e-08
##########                     HBond_Acceptors:                   6
##########                        HBond_Donors:                   0
##########                         Heavy_Atoms:                  24
##########                          Grid_Score:          -32.058994
##########                     Grid_vdw_energy:          -31.644228
##########                      Grid_es_energy:           -0.414766
##########           Internal_energy_repulsive:           11.657447

@<TRIPOS>MOLECULE
ZINC001341052241
 56 58 1 0 0
SMALL
USER_CHARGES


@<TRIPOS>ATOM
      1 C1        -14.7792   -3.0117   59.6765 C.3     1  ZINC001341052241   -0.1700
      2 C2        -14.1405   -2.5464   58.3664 C.3     1  ZINC001341052241    0.1100
      3 N3        -12.8017   -3.1280   58.2423 N.pl3   1  ZINC001341052241   -0.4500
      4 C4        -12.4358   -4.2022   57.4794 C.2     1  ZINC001341052241    0.1800
      5 C5        -13.3420   -5.0207   56.5963 C.3     1  ZINC001341052241    0.1500
      6 O6        -12.8249   -5.0327   55.2642 O.3     1  ZINC001341052241   -0.3700
      7 C7        -12.7143   -3.7369   54.6720 C.3     1  ZINC001341052241    0.0900
      8 C8        -14.1037   -3.2416   54.2656 C.3     1  ZINC001341052241   -0.1400
      9 C9        -13.9852   -1.8542   53.6316 C.3     1  ZINC001341052241   -0.1200
     10 C10       -13.0899   -1.9340   52.3934 C.3     1  ZINC001341052241   -0.1200
     11 C11       -11.7005   -2.4293   52.7999 C.3     1  ZINC001341052241   -0.1200
     12 C12       -11.8190   -3.8167   53.4339 C.3     1  ZINC001341052241   -0.1200
     13 N13       -11.1582   -4.3864   57.6570 N.2     1  ZINC001341052241   -0.2600
     14 N14       -10.6945   -3.5050   58.4694 N.2     1  ZINC001341052241   -0.3100
     15 C15       -11.6613   -2.7105   58.8644 C.2     1  ZINC001341052241    0.3500
     16 N16       -11.5449   -1.6451   59.7428 N.3     1  ZINC001341052241   -0.4600
     17 C17       -10.5865   -1.9480   60.8134 C.3     1  ZINC001341052241    0.0700
     18 C18       -10.5917   -0.8135   61.8405 C.3     1  ZINC001341052241   -0.1100
     19 C19       -10.2130    0.4980   61.1470 C.3     1  ZINC001341052241   -0.0900
     20 C20       -10.2758    1.6466   62.1560 C.3     1  ZINC001341052241    0.0700
     21 O21        -9.5066    1.3078   63.3118 O.3     1  ZINC001341052241   -0.3900
     22 C22       -10.2425    1.3607   64.5356 C.3     1  ZINC001341052241    0.0300
     23 C23       -11.1978    0.7655   60.0055 C.3     1  ZINC001341052241   -0.1100
     24 C24       -11.1750   -0.4147   59.0315 C.3     1  ZINC001341052241    0.0700
     25 H25       -14.8445   -4.0996   59.6825 H       1  ZINC001341052241    0.0600
     26 H26       -14.1690   -2.6796   60.5164 H       1  ZINC001341052241    0.0700
     27 H27       -15.7794   -2.5871   59.7640 H       1  ZINC001341052241    0.0800
     28 H28       -14.0658   -1.4589   58.3648 H       1  ZINC001341052241    0.0900
     29 H29       -14.7563   -2.8695   57.5270 H       1  ZINC001341052241    0.1000
     30 H30       -13.3935   -6.0414   56.9752 H       1  ZINC001341052241    0.0900
     31 H31       -14.3401   -4.5828   56.5948 H       1  ZINC001341052241    0.0700
     32 H32       -12.2779   -3.0445   55.3919 H       1  ZINC001341052241    0.0600
     33 H33       -14.5401   -3.9340   53.5457 H       1  ZINC001341052241    0.0700
     34 H34       -14.7415   -3.1847   55.1476 H       1  ZINC001341052241    0.0700
     35 H35       -13.5489   -1.1617   54.3515 H       1  ZINC001341052241    0.0600
     36 H36       -14.9751   -1.5014   53.3420 H       1  ZINC001341052241    0.0700
     37 H37       -13.0055   -0.9456   51.9417 H       1  ZINC001341052241    0.0600
     38 H38       -13.5262   -2.6264   51.6736 H       1  ZINC001341052241    0.0600
     39 H39       -11.2641   -1.7368   53.5198 H       1  ZINC001341052241    0.0600
     40 H40       -11.0627   -2.4861   51.9178 H       1  ZINC001341052241    0.0700
     41 H41       -10.8291   -4.1696   53.7235 H       1  ZINC001341052241    0.0700
     42 H42       -12.2553   -4.5091   52.7140 H       1  ZINC001341052241    0.0700
     43 H43        -9.5876   -2.0489   60.3889 H       1  ZINC001341052241    0.0600
     44 H44       -10.8697   -2.8807   61.3011 H       1  ZINC001341052241    0.0800
     45 H45        -9.8691   -1.0312   62.6269 H       1  ZINC001341052241    0.0800
     46 H46       -11.5869   -0.7210   62.2755 H       1  ZINC001341052241    0.0800
     47 H47        -9.2023    0.4197   60.7466 H       1  ZINC001341052241    0.0800
     48 H48       -11.3121    1.8184   62.4469 H       1  ZINC001341052241    0.0500
     49 H49        -9.8709    2.5512   61.7026 H       1  ZINC001341052241    0.0500
     50 H50       -10.6233    2.3706   64.6873 H       1  ZINC001341052241    0.0400
     51 H51        -9.5885    1.0905   65.3648 H       1  ZINC001341052241    0.0900
     52 H52       -11.0770    0.6610   64.4883 H       1  ZINC001341052241    0.0400
     53 H53       -12.2025    0.8829   60.4117 H       1  ZINC001341052241    0.0700
     54 H54       -10.9081    1.6760   59.4809 H       1  ZINC001341052241    0.0800
     55 H55       -10.1734   -0.5228   58.6154 H       1  ZINC001341052241    0.0600
     56 H56       -11.8856   -0.2338   58.2251 H       1  ZINC001341052241    0.0800
@<TRIPOS>BOND
     1     1     2    1
     2     1    25    1
     3     1    26    1
     4     1    27    1
     5     2     3    1
     6     2    28    1
     7     2    29    1
     8     3    15    1
     9     3     4    1
    10     4     5    1
    11     4    13    2
    12     5     6    1
    13     5    30    1
    14     5    31    1
    15     6     7    1
    16     7    12    1
    17     7     8    1
    18     7    32    1
    19     8     9    1
    20     8    33    1
    21     8    34    1
    22     9    10    1
    23     9    35    1
    24     9    36    1
    25    10    11    1
    26    10    37    1
    27    10    38    1
    28    11    12    1
    29    11    39    1
    30    11    40    1
    31    12    41    1
    32    12    42    1
    33    13    14    1
    34    14    15    2
    35    15    16    1
    36    16    24    1
    37    16    17    1
    38    17    18    1
    39    17    43    1
    40    17    44    1
    41    18    19    1
    42    18    45    1
    43    18    46    1
    44    19    20    1
    45    19    23    1
    46    19    47    1
    47    20    21    1
    48    20    48    1
    49    20    49    1
    50    21    22    1
    51    22    50    1
    52    22    51    1
    53    22    52    1
    54    23    24    1
    55    23    53    1
    56    23    54    1
    57    24    55    1
    58    24    56    1
@<TRIPOS>SUBSTRUCTURE
     1 ZINC001341052241        1 TEMP              0 ****  ****    0 ROOT


##########                                Name:    ZINC001085711660
##########                DOCK_Rotatable_Bonds:                   8
##########                         Heavy_Atoms:                  25
##########                    Molecular_Weight:             347.414
##########                DOCK_Rotatable_Bonds:                   8
##########                       Formal_Charge:         -0.00999993
##########                     HBond_Acceptors:                   7
##########                        HBond_Donors:                   0
##########                         Heavy_Atoms:                  25
##########                          Grid_Score:          -32.058048
##########                     Grid_vdw_energy:          -31.550316
##########                      Grid_es_energy:           -0.507734
##########           Internal_energy_repulsive:           14.871720

@<TRIPOS>MOLECULE
ZINC001085711660
 50 52 1 0 0
SMALL
USER_CHARGES


@<TRIPOS>ATOM
      1 C1         -7.2682    2.1798   57.1977 C.3     1  ZINC001085711660    0.0300
      2 O2         -7.9767    1.5357   56.1370 O.3     1  ZINC001085711660   -0.3800
      3 C3         -9.2820    2.0679   55.9026 C.3     1  ZINC001085711660    0.1400
      4 C4         -9.9445    1.3010   54.7873 C.2     1  ZINC001085711660    0.0100
      5 C5        -10.7946    1.8185   53.8732 C.2     1  ZINC001085711660   -0.1900
      6 C6        -11.1751    0.7690   53.0222 C.2     1  ZINC001085711660   -0.1200
      7 C7        -10.5297   -0.3496   53.4658 C.2     1  ZINC001085711660   -0.0700
      8 C8        -10.6266   -1.6900   52.8789 C.2     1  ZINC001085711660    0.6000
      9 O9        -10.2033   -1.8950   51.7564 O.2     1  ZINC001085711660   -0.5200
     10 N10       -11.1845   -2.6951   53.5826 N.am    1  ZINC001085711660   -0.6000
     11 C11       -11.2812   -4.0342   52.9963 C.3     1  ZINC001085711660    0.0700
     12 C12       -11.6941   -2.4485   54.9339 C.3     1  ZINC001085711660    0.1300
     13 C13       -13.0422   -3.1511   55.1065 C.3     1  ZINC001085711660    0.0000
     14 H14       -12.9505   -4.2367   55.1389 H       1  ZINC001085711660    0.1000
     15 C15       -14.1187   -2.6572   54.1298 C.3     1  ZINC001085711660   -0.1400
     16 C16       -15.0428   -2.7969   55.3476 C.3     1  ZINC001085711660    0.0100
     17 N17       -13.8572   -2.5972   56.2038 N.3     1  ZINC001085711660   -0.4500
     18 C18       -13.8804   -3.5082   57.3559 C.3     1  ZINC001085711660    0.1500
     19 H19       -14.2870   -4.4719   57.0491 H       1  ZINC001085711660    0.1000
     20 C20       -14.7573   -2.9128   58.4594 C.3     1  ZINC001085711660   -0.1900
     21 C21       -12.4784   -3.6970   57.8754 C.2     1  ZINC001085711660    0.2000
     22 N22       -11.7104   -4.7204   57.6315 N.2     1  ZINC001085711660   -0.4700
     23 C23       -10.5362   -4.5381   58.2611 C.2     1  ZINC001085711660   -0.0400
     24 C24       -10.5986   -3.3624   58.9079 C.2     1  ZINC001085711660   -0.0500
     25 C25        -9.5112   -2.7441   59.7483 C.3     1  ZINC001085711660   -0.0700
     26 O26       -11.8145   -2.8373   58.6594 O.3     1  ZINC001085711660   -0.2000
     27 O27        -9.7833   -0.0045   54.5353 O.3     1  ZINC001085711660   -0.1500
     28 H28        -7.1470    3.2374   56.9640 H       1  ZINC001085711660    0.0500
     29 H29        -7.8298    2.0747   58.1261 H       1  ZINC001085711660    0.0500
     30 H30        -6.2874    1.7182   57.3123 H       1  ZINC001085711660    0.0900
     31 H31        -9.8792    1.9783   56.8100 H       1  ZINC001085711660    0.0900
     32 H32        -9.2013    3.1184   55.6232 H       1  ZINC001085711660    0.0700
     33 H33       -11.1201    2.8463   53.8094 H       1  ZINC001085711660    0.1600
     34 H34       -11.8479    0.8338   52.1799 H       1  ZINC001085711660    0.1600
     35 H35       -10.3416   -4.5656   53.1472 H       1  ZINC001085711660    0.0600
     36 H36       -12.0905   -4.5836   53.4771 H       1  ZINC001085711660    0.0900
     37 H37       -11.4835   -3.9496   51.9286 H       1  ZINC001085711660    0.0800
     38 H38       -10.9857   -2.8366   55.6657 H       1  ZINC001085711660    0.0900
     39 H39       -11.8212   -1.3764   55.0842 H       1  ZINC001085711660    0.0900
     40 H40       -13.9776   -1.6305   53.7920 H       1  ZINC001085711660    0.1000
     41 H41       -14.3394   -3.3525   53.3199 H       1  ZINC001085711660    0.0800
     42 H42       -15.7778   -1.9961   55.4291 H       1  ZINC001085711660    0.0900
     43 H43       -15.4857   -3.7880   55.4452 H       1  ZINC001085711660    0.0800
     44 H44       -14.4159   -1.9037   58.6899 H       1  ZINC001085711660    0.0800
     45 H45       -15.7929   -2.8778   58.1213 H       1  ZINC001085711660    0.0800
     46 H46       -14.6876   -3.5329   59.3531 H       1  ZINC001085711660    0.0700
     47 H47        -9.6948   -5.2151   58.2492 H       1  ZINC001085711660    0.1800
     48 H48        -8.8776   -2.1185   59.1197 H       1  ZINC001085711660    0.0800
     49 H49        -9.9602   -2.1346   60.5325 H       1  ZINC001085711660    0.0800
     50 H50        -8.9093   -3.5322   60.2006 H       1  ZINC001085711660    0.0900
@<TRIPOS>BOND
     1     1     2    1
     2     1    28    1
     3     1    29    1
     4     1    30    1
     5     2     3    1
     6     3     4    1
     7     3    31    1
     8     3    32    1
     9     4    27    1
    10     4     5    2
    11     5     6    1
    12     5    33    1
    13     6     7    2
    14     6    34    1
    15     7     8    1
    16     7    27    1
    17     8     9    2
    18     8    10   am
    19    10    11    1
    20    10    12    1
    21    11    35    1
    22    11    36    1
    23    11    37    1
    24    12    13    1
    25    12    38    1
    26    12    39    1
    27    13    14    1
    28    13    17    1
    29    13    15    1
    30    15    16    1
    31    15    40    1
    32    15    41    1
    33    16    17    1
    34    16    42    1
    35    16    43    1
    36    17    18    1
    37    18    19    1
    38    18    20    1
    39    18    21    1
    40    20    44    1
    41    20    45    1
    42    20    46    1
    43    21    26    1
    44    21    22    2
    45    22    23    1
    46    23    24    2
    47    23    47    1
    48    24    25    1
    49    24    26    1
    50    25    48    1
    51    25    49    1
    52    25    50    1
@<TRIPOS>SUBSTRUCTURE
     1 ZINC001085711660        1 TEMP              0 ****  ****    0 ROOT


##########                                Name:    ZINC000840649129
##########                DOCK_Rotatable_Bonds:                   8
##########                         Heavy_Atoms:                  26
##########                    Molecular_Weight:             376.839
##########                DOCK_Rotatable_Bonds:                   8
##########                       Formal_Charge:          -0.0199998
##########                     HBond_Acceptors:                   7
##########                        HBond_Donors:                   3
##########                         Heavy_Atoms:                  26
##########                          Grid_Score:          -32.034275
##########                     Grid_vdw_energy:          -31.051519
##########                      Grid_es_energy:           -0.982755
##########           Internal_energy_repulsive:           13.678429

@<TRIPOS>MOLECULE
ZINC000840649129
 47 48 1 0 0
SMALL
USER_CHARGES


@<TRIPOS>ATOM
      1 C1        -15.1323   -3.3438   59.3013 C.3     1  ZINC000840649129    0.0200
      2 O2        -14.1459   -2.4797   58.7336 O.3     1  ZINC000840649129   -0.2900
      3 C3        -12.8456   -2.8164   58.9291 C.ar    1  ZINC000840649129    0.1400
      4 C4        -12.1736   -2.3679   60.0558 C.ar    1  ZINC000840649129   -0.1700
      5 C5        -10.8511   -2.7092   60.2565 C.ar    1  ZINC000840649129   -0.1200
      6 C6        -10.1828   -3.5049   59.3320 C.ar    1  ZINC000840649129    0.1700
      7 N7         -8.8421   -3.8458   59.5441 N.pl3   1  ZINC000840649129   -0.8800
      8 C8        -10.8409   -3.9610   58.2028 C.ar    1  ZINC000840649129   -0.1000
      9 C9        -12.1807   -3.6232   57.9953 C.ar    1  ZINC000840649129   -0.1200
     10 C10       -12.8890   -4.1052   56.7957 C.2     1  ZINC000840649129    0.5100
     11 O11       -12.8026   -5.2719   56.4669 O.2     1  ZINC000840649129   -0.4800
     12 O12       -13.6322   -3.2522   56.0638 O.3     1  ZINC000840649129   -0.3200
     13 C13       -13.4935   -3.3285   54.6204 C.3     1  ZINC000840649129    0.0800
     14 H14       -13.5739   -4.3679   54.3021 H       1  ZINC000840649129    0.1200
     15 C15       -12.1489   -2.7817   54.2153 C.2     1  ZINC000840649129    0.5200
     16 O16       -11.2488   -3.5402   53.9228 O.2     1  ZINC000840649129   -0.4900
     17 N17       -11.9466   -1.4498   54.1781 N.am    1  ZINC000840649129   -0.6600
     18 C18       -10.6976   -0.9417   53.8019 C.ar    1  ZINC000840649129    0.1600
     19 C19       -10.0851   -1.3913   52.6402 C.ar    1  ZINC000840649129   -0.1400
     20 C20        -8.8526   -0.8878   52.2711 C.ar    1  ZINC000840649129   -0.0900
     21 C21        -8.2286    0.0631   53.0572 C.ar    1  ZINC000840649129   -0.1300
     22 C22        -8.8353    0.5133   54.2157 C.ar    1  ZINC000840649129   -0.0900
     23 C23       -10.0706    0.0181   54.5876 C.ar    1  ZINC000840649129   -0.0700
     24 Cl24      -10.8320    0.5840   56.0415 Cl      1  ZINC000840649129   -0.0700
     25 C25       -14.5996   -2.5050   53.9575 C.3     1  ZINC000840649129   -0.1100
     26 C26       -14.4541   -2.5865   52.4366 C.3     1  ZINC000840649129   -0.1600
     27 C27       -15.9648   -3.0595   54.3697 C.3     1  ZINC000840649129   -0.1500
     28 H28       -16.1267   -2.9607   59.0715 H       1  ZINC000840649129    0.1000
     29 H29       -15.0228   -4.3444   58.8831 H       1  ZINC000840649129    0.0600
     30 H30       -15.0000   -3.3853   60.3825 H       1  ZINC000840649129    0.0600
     31 H31       -12.6859   -1.7496   60.7779 H       1  ZINC000840649129    0.1400
     32 H32       -10.3327   -2.3561   61.1358 H       1  ZINC000840649129    0.1300
     33 H33        -8.3799   -3.5271   60.3352 H       1  ZINC000840649129    0.4000
     34 H34        -8.3750   -4.4007   58.9001 H       1  ZINC000840649129    0.4000
     35 H35       -10.3211   -4.5792   57.4858 H       1  ZINC000840649129    0.1400
     36 H36       -12.6664   -0.8431   54.4120 H       1  ZINC000840649129    0.4200
     37 H37       -10.5714   -2.1344   52.0255 H       1  ZINC000840649129    0.1700
     38 H38        -8.3757   -1.2377   51.3675 H       1  ZINC000840649129    0.1300
     39 H39        -7.2652    0.4548   52.7661 H       1  ZINC000840649129    0.1300
     40 H40        -8.3452    1.2559   54.8278 H       1  ZINC000840649129    0.1400
     41 H41       -14.5186   -1.4655   54.2751 H       1  ZINC000840649129    0.0900
     42 H42       -14.4078   -3.6319   52.1314 H       1  ZINC000840649129    0.0700
     43 H43       -15.3114   -2.1076   51.9635 H       1  ZINC000840649129    0.0800
     44 H44       -13.5396   -2.0780   52.1314 H       1  ZINC000840649129    0.0600
     45 H45       -16.0684   -3.0015   55.4532 H       1  ZINC000840649129    0.0500
     46 H46       -16.7528   -2.4729   53.8974 H       1  ZINC000840649129    0.0600
     47 H47       -16.0457   -4.0990   54.0521 H       1  ZINC000840649129    0.0700
@<TRIPOS>BOND
     1     1     2    1
     2     1    28    1
     3     1    29    1
     4     1    30    1
     5     2     3    1
     6     3     9   ar
     7     3     4   ar
     8     4     5   ar
     9     4    31    1
    10     5     6   ar
    11     5    32    1
    12     6     7    1
    13     6     8   ar
    14     7    33    1
    15     7    34    1
    16     8     9   ar
    17     8    35    1
    18     9    10    1
    19    10    11    2
    20    10    12    1
    21    12    13    1
    22    13    14    1
    23    13    15    1
    24    13    25    1
    25    15    16    2
    26    15    17   am
    27    17    18    1
    28    17    36    1
    29    18    23   ar
    30    18    19   ar
    31    19    20   ar
    32    19    37    1
    33    20    21   ar
    34    20    38    1
    35    21    22   ar
    36    21    39    1
    37    22    23   ar
    38    22    40    1
    39    23    24    1
    40    25    26    1
    41    25    27    1
    42    25    41    1
    43    26    42    1
    44    26    43    1
    45    26    44    1
    46    27    45    1
    47    27    46    1
    48    27    47    1
@<TRIPOS>SUBSTRUCTURE
     1 ZINC000840649129        1 TEMP              0 ****  ****    0 ROOT


##########                                Name:    ZINC000948289723
##########                DOCK_Rotatable_Bonds:                   6
##########                         Heavy_Atoms:                  24
##########                    Molecular_Weight:             331.415
##########                DOCK_Rotatable_Bonds:                   6
##########                       Formal_Charge:           0.0599999
##########                     HBond_Acceptors:                   6
##########                        HBond_Donors:                   1
##########                         Heavy_Atoms:                  24
##########                          Grid_Score:          -32.010662
##########                     Grid_vdw_energy:          -31.429844
##########                      Grid_es_energy:           -0.580820
##########           Internal_energy_repulsive:            7.995736

@<TRIPOS>MOLECULE
ZINC000948289723
 49 52 1 0 0
SMALL
USER_CHARGES


@<TRIPOS>ATOM
      1 C1        -14.4498    1.0302   50.4584 C.3     1  ZINC000948289723   -0.1400
      2 C2        -13.4479    0.0873   51.1281 C.3     1  ZINC000948289723   -0.1100
      3 C3        -13.7702   -0.2076   52.6025 C.3     1  ZINC000948289723   -0.1100
      4 C4        -13.3518   -1.6605   52.3217 C.3     1  ZINC000948289723   -0.1400
      5 C5        -14.2314   -2.6828   52.9944 C.2     1  ZINC000948289723    0.5400
      6 O6        -15.1820   -3.1484   52.4024 O.2     1  ZINC000948289723   -0.5300
      7 N7        -13.9616   -3.0794   54.2538 N.am    1  ZINC000948289723   -0.6200
      8 C8        -14.7333   -4.0643   55.0258 C.3     1  ZINC000948289723    0.1100
      9 C9        -14.0399   -4.2177   56.3959 C.3     1  ZINC000948289723   -0.1100
     10 H10       -14.5180   -3.5844   57.1433 H       1  ZINC000948289723    0.1000
     11 C11       -14.0456   -5.6803   56.8450 C.3     1  ZINC000948289723   -0.1400
     12 C12       -12.5939   -3.7330   56.1098 C.3     1  ZINC000948289723    0.1400
     13 H13       -11.9942   -4.5305   55.6712 H       1  ZINC000948289723    0.1200
     14 N14       -11.9636   -3.2142   57.3263 N.am    1  ZINC000948289723   -0.7100
     15 C15       -10.8828   -3.8327   57.8416 C.2     1  ZINC000948289723    0.6100
     16 O16       -10.4299   -4.8204   57.2962 O.2     1  ZINC000948289723   -0.5000
     17 C17       -10.2492   -3.3113   59.0675 C.2     1  ZINC000948289723   -0.0900
     18 C18       -10.5989   -2.1830   59.7579 C.2     1  ZINC000948289723   -0.1400
     19 C19        -9.6844   -2.1482   60.8341 C.2     1  ZINC000948289723    0.0500
     20 C20        -9.6124   -1.1074   61.9216 C.3     1  ZINC000948289723   -0.0900
     21 C21        -9.9188    0.3408   61.5347 C.3     1  ZINC000948289723   -0.1600
     22 C22       -10.9246   -0.4581   62.3661 C.3     1  ZINC000948289723   -0.1600
     23 N23        -8.9166   -3.1906   60.7031 N.2     1  ZINC000948289723   -0.3300
     24 O24        -9.2135   -3.8526   59.7362 O.3     1  ZINC000948289723    0.1200
     25 C25       -12.8401   -2.6022   55.0833 C.3     1  ZINC000948289723    0.0900
     26 C26       -13.7227   -1.4003   50.8521 C.3     1  ZINC000948289723   -0.1200
     27 H27       -15.4536    0.8118   50.8227 H       1  ZINC000948289723    0.0600
     28 H28       -14.1930    2.0621   50.6973 H       1  ZINC000948289723    0.0600
     29 H29       -14.4163    0.8881   49.3783 H       1  ZINC000948289723    0.0600
     30 H30       -12.4119    0.3792   50.9561 H       1  ZINC000948289723    0.0900
     31 H31       -13.1144    0.3078   53.3043 H       1  ZINC000948289723    0.0700
     32 H32       -14.8262   -0.0972   52.8492 H       1  ZINC000948289723    0.1000
     33 H33       -12.2895   -1.8471   52.4789 H       1  ZINC000948289723    0.1100
     34 H34       -15.7542   -3.7088   55.1648 H       1  ZINC000948289723    0.0800
     35 H35       -14.7396   -5.0215   54.5044 H       1  ZINC000948289723    0.0800
     36 H36       -13.5373   -6.2913   56.0992 H       1  ZINC000948289723    0.0600
     37 H37       -13.5292   -5.7690   57.8008 H       1  ZINC000948289723    0.0600
     38 H38       -15.0747   -6.0225   56.9549 H       1  ZINC000948289723    0.0700
     39 H39       -12.3242   -2.4254   57.7607 H       1  ZINC000948289723    0.4100
     40 H40       -11.3892   -1.4824   59.5326 H       1  ZINC000948289723    0.1800
     41 H41        -8.8505   -1.2750   62.6829 H       1  ZINC000948289723    0.1300
     42 H42        -9.3584    1.1265   62.0415 H       1  ZINC000948289723    0.1100
     43 H43       -10.1725    0.5408   60.4937 H       1  ZINC000948289723    0.1000
     44 H44       -11.8399   -0.7838   61.8719 H       1  ZINC000948289723    0.1000
     45 H45       -11.0258   -0.1982   63.4197 H       1  ZINC000948289723    0.1100
     46 H46       -11.9516   -2.4449   54.4718 H       1  ZINC000948289723    0.0900
     47 H47       -13.1183   -1.6804   55.5940 H       1  ZINC000948289723    0.0800
     48 H48       -14.7657   -1.6160   50.6202 H       1  ZINC000948289723    0.0900
     49 H49       -13.0286   -1.8479   50.1408 H       1  ZINC000948289723    0.0800
@<TRIPOS>BOND
     1     1     2    1
     2     1    27    1
     3     1    28    1
     4     1    29    1
     5     2    26    1
     6     2     3    1
     7     2    30    1
     8     3     4    1
     9     3    31    1
    10     3    32    1
    11     4     5    1
    12     4    26    1
    13     4    33    1
    14     5     6    2
    15     5     7   am
    16     7    25    1
    17     7     8    1
    18     8     9    1
    19     8    34    1
    20     8    35    1
    21     9    10    1
    22     9    11    1
    23     9    12    1
    24    11    36    1
    25    11    37    1
    26    11    38    1
    27    12    13    1
    28    12    14    1
    29    12    25    1
    30    14    15   am
    31    14    39    1
    32    15    16    2
    33    15    17    1
    34    17    24    1
    35    17    18    2
    36    18    19    1
    37    18    40    1
    38    19    20    1
    39    19    23    2
    40    20    22    1
    41    20    21    1
    42    20    41    1
    43    21    22    1
    44    21    42    1
    45    21    43    1
    46    22    44    1
    47    22    45    1
    48    23    24    1
    49    25    46    1
    50    25    47    1
    51    26    48    1
    52    26    49    1
@<TRIPOS>SUBSTRUCTURE
     1 ZINC000948289723        1 TEMP              0 ****  ****    0 ROOT


##########                                Name:    ZINC001110536231
##########                DOCK_Rotatable_Bonds:                   8
##########                         Heavy_Atoms:                  24
##########                    Molecular_Weight:             329.442
##########                DOCK_Rotatable_Bonds:                   8
##########                       Formal_Charge:          -0.0400001
##########                     HBond_Acceptors:                   5
##########                        HBond_Donors:                   1
##########                         Heavy_Atoms:                  24
##########                          Grid_Score:          -32.005177
##########                     Grid_vdw_energy:          -32.022938
##########                      Grid_es_energy:            0.017763
##########           Internal_energy_repulsive:           29.292572

@<TRIPOS>MOLECULE
ZINC001110536231
 51 53 1 0 0
SMALL
USER_CHARGES


@<TRIPOS>ATOM
      1 C1         -7.7620    0.9938   51.9135 C.3     1  ZINC001110536231   -0.1300
      2 C2         -7.1319    1.6694   50.6940 C.3     1  ZINC001110536231   -0.1000
      3 C3         -5.6544    1.8515   50.9280 C.2     1  ZINC001110536231   -0.0200
      4 C4         -4.6858    0.7799   50.4981 C.3     1  ZINC001110536231   -0.1300
      5 C5         -5.2051    2.9577   51.5139 C.2     1  ZINC001110536231   -0.2400
      6 C6         -3.7628    3.1352   51.7422 C.2     1  ZINC001110536231    0.5400
      7 O7         -3.3433    3.3167   52.8692 O.2     1  ZINC001110536231   -0.5300
      8 N8         -2.9062    3.0965   50.7024 N.am    1  ZINC001110536231   -0.7300
      9 C9         -1.4696    3.2715   50.9300 C.3     1  ZINC001110536231    0.1100
     10 H10        -1.2722    3.4880   51.9799 H       1  ZINC001110536231    0.1000
     11 C11        -0.9075    4.3963   50.0265 C.3     1  ZINC001110536231   -0.1600
     12 C12         0.1434    3.6613   49.1410 C.3     1  ZINC001110536231    0.0500
     13 H13         0.4039    4.1604   48.2076 H       1  ZINC001110536231    0.1200
     14 C14         1.3360    3.3572   50.0971 C.3     1  ZINC001110536231   -0.1200
     15 C15         0.7879    2.2363   51.0140 C.3     1  ZINC001110536231   -0.1100
     16 C16        -0.6836    2.0055   50.4735 C.3     1  ZINC001110536231    0.0400
     17 H17        -1.1298    1.0421   50.7201 H       1  ZINC001110536231    0.1200
     18 N18        -0.4940    2.3031   49.0046 N.3     1  ZINC001110536231   -0.4900
     19 C19        -1.7872    2.3797   48.3118 C.3     1  ZINC001110536231    0.0600
     20 C20        -1.5887    2.0966   46.8450 C.ar    1  ZINC001110536231    0.0100
     21 C21        -1.3696    3.1307   45.9458 C.ar    1  ZINC001110536231   -0.2100
     22 C22        -1.1911    2.8366   44.6084 C.ar    1  ZINC001110536231    0.1400
     23 N23        -1.2266    1.5894   44.1797 N.ar    1  ZINC001110536231   -0.5400
     24 C24        -1.4329    0.5771   45.0059 C.ar    1  ZINC001110536231    0.3200
     25 O25        -1.4612   -0.6901   44.5219 O.3     1  ZINC001110536231   -0.3100
     26 C26        -1.5170   -0.8412   43.1020 C.3     1  ZINC001110536231    0.0400
     27 C27        -1.6152    0.7985   46.3647 C.ar    1  ZINC001110536231   -0.1700
     28 H28        -8.8306    0.8620   51.7442 H       1  ZINC001110536231    0.0500
     29 H29        -7.2964    0.0208   52.0708 H       1  ZINC001110536231    0.0700
     30 H30        -7.6078    1.6170   52.7944 H       1  ZINC001110536231    0.0400
     31 H31        -7.2861    1.0461   49.8131 H       1  ZINC001110536231    0.0900
     32 H32        -7.5975    2.6424   50.5367 H       1  ZINC001110536231    0.0600
     33 H33        -4.3621    0.9719   49.4751 H       1  ZINC001110536231    0.0800
     34 H34        -3.8200    0.7858   51.1603 H       1  ZINC001110536231    0.0700
     35 H35        -5.1747   -0.1930   50.5480 H       1  ZINC001110536231    0.0700
     36 H36        -5.8992    3.7256   51.8220 H       1  ZINC001110536231    0.1200
     37 H37        -3.2409    2.9529   49.8034 H       1  ZINC001110536231    0.4000
     38 H38        -1.6978    4.8237   49.4093 H       1  ZINC001110536231    0.0700
     39 H39        -0.4291    5.1689   50.6284 H       1  ZINC001110536231    0.0800
     40 H40         2.1994    3.0040   49.5334 H       1  ZINC001110536231    0.0700
     41 H41         1.5934    4.2400   50.6822 H       1  ZINC001110536231    0.0700
     42 H42         1.3798    1.3276   50.9048 H       1  ZINC001110536231    0.0800
     43 H43         0.7738    2.5636   52.0537 H       1  ZINC001110536231    0.0700
     44 H44        -2.4702    1.6431   48.7349 H       1  ZINC001110536231    0.0900
     45 H45        -2.2071    3.3779   48.4355 H       1  ZINC001110536231    0.0700
     46 H46        -1.3394    4.1546   46.2882 H       1  ZINC001110536231    0.1300
     47 H47        -1.0206    3.6377   43.9045 H       1  ZINC001110536231    0.1600
     48 H48        -1.5348   -1.9015   42.8499 H       1  ZINC001110536231    0.1000
     49 H49        -2.4187   -0.3618   42.7208 H       1  ZINC001110536231    0.0600
     50 H50        -0.6401   -0.3754   42.6523 H       1  ZINC001110536231    0.0600
     51 H51        -1.7829   -0.0302   47.0365 H       1  ZINC001110536231    0.1400
@<TRIPOS>BOND
     1     1     2    1
     2     1    28    1
     3     1    29    1
     4     1    30    1
     5     2     3    1
     6     2    31    1
     7     2    32    1
     8     3     4    1
     9     3     5    2
    10     4    33    1
    11     4    34    1
    12     4    35    1
    13     5     6    1
    14     5    36    1
    15     6     7    2
    16     6     8   am
    17     8     9    1
    18     8    37    1
    19     9    10    1
    20     9    16    1
    21     9    11    1
    22    11    12    1
    23    11    38    1
    24    11    39    1
    25    12    13    1
    26    12    18    1
    27    12    14    1
    28    14    15    1
    29    14    40    1
    30    14    41    1
    31    15    16    1
    32    15    42    1
    33    15    43    1
    34    16    17    1
    35    16    18    1
    36    18    19    1
    37    19    20    1
    38    19    44    1
    39    19    45    1
    40    20    27   ar
    41    20    21   ar
    42    21    22   ar
    43    21    46    1
    44    22    23   ar
    45    22    47    1
    46    23    24   ar
    47    24    25    1
    48    24    27   ar
    49    25    26    1
    50    26    48    1
    51    26    49    1
    52    26    50    1
    53    27    51    1
@<TRIPOS>SUBSTRUCTURE
     1 ZINC001110536231        1 TEMP              0 ****  ****    0 ROOT


##########                                Name:    ZINC001143596311
##########                DOCK_Rotatable_Bonds:                   9
##########                         Heavy_Atoms:                  21
##########                    Molecular_Weight:             335.811
##########                DOCK_Rotatable_Bonds:                   9
##########                       Formal_Charge:          0.00999959
##########                     HBond_Acceptors:                   9
##########                        HBond_Donors:                   3
##########                         Heavy_Atoms:                  21
##########                          Grid_Score:          -31.995329
##########                     Grid_vdw_energy:          -31.470711
##########                      Grid_es_energy:           -0.524618
##########           Internal_energy_repulsive:           12.712974

@<TRIPOS>MOLECULE
ZINC001143596311
 39 39 1 0 0
SMALL
USER_CHARGES


@<TRIPOS>ATOM
      1 C1         -8.6051   -0.3617   63.3532 C.3     1  ZINC001143596311    0.0400
      2 O2         -9.4793    0.1212   62.3310 O.3     1  ZINC001143596311   -0.2600
      3 N3        -10.2280   -0.9304   61.6426 N.3     1  ZINC001143596311   -0.3700
      4 C4        -11.3973   -0.3754   60.9479 C.3     1  ZINC001143596311    0.0000
      5 C5         -9.3639   -1.6686   60.7118 C.3     1  ZINC001143596311    0.0400
      6 C6         -9.8549   -3.1130   60.5967 C.3     1  ZINC001143596311   -0.1300
      7 C7         -9.2446   -3.7616   59.3526 C.3     1  ZINC001143596311    0.1200
      8 N8        -10.0780   -3.4603   58.1860 N.am    1  ZINC001143596311   -0.7200
      9 C9        -10.8983   -4.4035   57.6822 C.2     1  ZINC001143596311    0.5600
     10 O10       -10.9477   -5.5038   58.1965 O.2     1  ZINC001143596311   -0.5200
     11 C11       -11.7378   -4.1000   56.5043 C.ar    1  ZINC001143596311   -0.1500
     12 C12       -12.9402   -4.7812   56.3066 C.ar    1  ZINC001143596311   -0.0200
     13 C13       -13.7193   -4.4936   55.2056 C.ar    1  ZINC001143596311   -0.1300
     14 C14       -13.3109   -3.5316   54.2970 C.ar    1  ZINC001143596311    0.0700
     15 Cl15      -14.2971   -3.1751   52.9134 Cl      1  ZINC001143596311   -0.0200
     16 C16       -12.1187   -2.8523   54.4879 C.ar    1  ZINC001143596311   -0.6800
     17 S17       -11.6077   -1.6295   53.3267 S.o2    1  ZINC001143596311    2.7000
     18 N18       -11.3994   -2.3921   51.8716 N.am    1  ZINC001143596311   -1.2500
     19 O19       -12.7091   -0.7466   53.1630 O.2     1  ZINC001143596311   -0.9400
     20 O20       -10.3192   -1.1964   53.7408 O.2     1  ZINC001143596311   -0.9500
     21 C21       -11.3343   -3.1267   55.5881 C.ar    1  ZINC001143596311    0.0500
     22 H22        -9.1866   -0.8900   64.1088 H       1  ZINC001143596311    0.0400
     23 H23        -7.8750   -1.0423   62.9152 H       1  ZINC001143596311    0.0500
     24 H24        -8.0870    0.4787   63.8152 H       1  ZINC001143596311    0.0900
     25 H25       -11.0683    0.3584   60.2120 H       1  ZINC001143596311    0.0400
     26 H26       -11.9358   -1.1784   60.4446 H       1  ZINC001143596311    0.0900
     27 H27       -12.0554    0.1056   61.6715 H       1  ZINC001143596311    0.0800
     28 H28        -9.3976   -1.1943   59.7310 H       1  ZINC001143596311    0.0500
     29 H29        -8.3394   -1.6615   61.0838 H       1  ZINC001143596311    0.0900
     30 H30        -9.5524   -3.6713   61.4828 H       1  ZINC001143596311    0.0800
     31 H31       -10.9418   -3.1221   60.5151 H       1  ZINC001143596311    0.0800
     32 H32        -8.2406   -3.3683   59.1932 H       1  ZINC001143596311    0.0800
     33 H33        -9.1936   -4.8412   59.4936 H       1  ZINC001143596311    0.0800
     34 H34       -10.0394   -2.5819   57.7763 H       1  ZINC001143596311    0.4000
     35 H35       -13.2593   -5.5321   57.0141 H       1  ZINC001143596311    0.1500
     36 H36       -14.6497   -5.0200   55.0515 H       1  ZINC001143596311    0.1600
     37 H37       -12.1449   -2.8506   51.4532 H       1  ZINC001143596311    0.4200
     38 H38       -10.5320   -2.3803   51.4376 H       1  ZINC001143596311    0.4200
     39 H39       -10.4051   -2.5965   55.7359 H       1  ZINC001143596311    0.1700
@<TRIPOS>BOND
     1     1     2    1
     2     1    22    1
     3     1    23    1
     4     1    24    1
     5     2     3    1
     6     3     4    1
     7     3     5    1
     8     4    25    1
     9     4    26    1
    10     4    27    1
    11     5     6    1
    12     5    28    1
    13     5    29    1
    14     6     7    1
    15     6    30    1
    16     6    31    1
    17     7     8    1
    18     7    32    1
    19     7    33    1
    20     8     9   am
    21     8    34    1
    22     9    10    2
    23     9    11    1
    24    11    21   ar
    25    11    12   ar
    26    12    13   ar
    27    12    35    1
    28    13    14   ar
    29    13    36    1
    30    14    15    1
    31    14    16   ar
    32    16    17    1
    33    16    21   ar
    34    17    18   am
    35    17    19    2
    36    17    20    2
    37    18    37    1
    38    18    38    1
    39    21    39    1
@<TRIPOS>SUBSTRUCTURE
     1 ZINC001143596311        1 TEMP              0 ****  ****    0 ROOT


##########                                Name:    ZINC001193456967
##########                DOCK_Rotatable_Bonds:                   3
##########                         Heavy_Atoms:                  27
##########                    Molecular_Weight:             392.451
##########                DOCK_Rotatable_Bonds:                   3
##########                       Formal_Charge:           0.0300002
##########                     HBond_Acceptors:                   8
##########                        HBond_Donors:                   0
##########                         Heavy_Atoms:                  27
##########                          Grid_Score:          -31.986414
##########                     Grid_vdw_energy:          -31.953039
##########                      Grid_es_energy:           -0.033374
##########           Internal_energy_repulsive:           37.056587

@<TRIPOS>MOLECULE
ZINC001193456967
 48 50 1 0 0
SMALL
USER_CHARGES


@<TRIPOS>ATOM
      1 C1         -8.7286   -3.1011   59.9698 C.3     1  ZINC001193456967   -0.1400
      2 C2         -9.8403   -3.2922   58.9706 C.ar    1  ZINC001193456967    0.0300
      3 C3        -10.2024   -4.5661   58.5748 C.ar    1  ZINC001193456967   -0.1400
      4 C4        -11.2223   -4.7413   57.6579 C.ar    1  ZINC001193456967    0.0300
      5 C5        -11.8800   -3.6428   57.1375 C.ar    1  ZINC001193456967   -0.6900
      6 S6        -13.1794   -3.8661   55.9686 S.o2    1  ZINC001193456967    2.7100
      7 O7        -13.3410   -5.2690   55.8113 O.2     1  ZINC001193456967   -0.9300
      8 O8        -14.2337   -3.0025   56.3709 O.2     1  ZINC001193456967   -0.9400
      9 N9        -12.6343   -3.2922   54.5140 N.am    1  ZINC001193456967   -1.0000
     10 C10       -11.4572   -3.7913   53.7798 C.3     1  ZINC001193456967    0.1100
     11 C11       -11.0162   -2.6062   52.8849 C.3     1  ZINC001193456967   -0.1200
     12 C12       -12.3841   -1.9994   52.4752 C.3     1  ZINC001193456967   -0.0500
     13 H13       -12.8086   -2.5409   51.6298 H       1  ZINC001193456967    0.1000
     14 C14       -12.2419   -0.5347   52.1504 C.ar    1  ZINC001193456967   -0.0800
     15 C15       -12.9712    0.0168   51.1135 C.ar    1  ZINC001193456967   -0.0800
     16 C16       -12.8414    1.3598   50.8147 C.ar    1  ZINC001193456967   -0.1500
     17 C17       -11.9810    2.1532   51.5545 C.ar    1  ZINC001193456967    0.1000
     18 F18       -11.8538    3.4663   51.2635 F       1  ZINC001193456967   -0.1400
     19 C19       -11.2514    1.5998   52.5930 C.ar    1  ZINC001193456967   -0.1500
     20 C20       -11.3864    0.2576   52.8931 C.ar    1  ZINC001193456967   -0.0800
     21 C21       -13.2478   -2.2048   53.7377 C.3     1  ZINC001193456967    0.1900
     22 C22       -14.6747   -2.5835   53.3360 C.3     1  ZINC001193456967   -0.1800
     23 C23       -13.2621   -0.9226   54.5725 C.3     1  ZINC001193456967   -0.1800
     24 C24       -11.5187   -2.3686   57.5343 C.ar    1  ZINC001193456967    0.0400
     25 C25       -10.5017   -2.1936   58.4538 C.ar    1  ZINC001193456967   -0.0600
     26 N26       -10.1148   -0.8295   58.8787 N.pl3   1  ZINC001193456967    0.0200
     27 O27        -9.7948   -0.6196   60.0350 O.2     1  ZINC001193456967   -0.1400
     28 O28       -10.1166    0.0831   58.0720 O.2     1  ZINC001193456967   -0.1500
     29 H29        -9.1515   -3.0046   60.9698 H       1  ZINC001193456967    0.1100
     30 H30        -8.0607   -3.9620   59.9394 H       1  ZINC001193456967    0.0900
     31 H31        -8.1695   -2.1985   59.7232 H       1  ZINC001193456967    0.0800
     32 H32        -9.6885   -5.4244   58.9815 H       1  ZINC001193456967    0.1600
     33 H33       -11.5048   -5.7367   57.3482 H       1  ZINC001193456967    0.1600
     34 H34       -10.6615   -4.0580   54.4753 H       1  ZINC001193456967    0.0900
     35 H35       -11.7291   -4.6498   53.1657 H       1  ZINC001193456967    0.0700
     36 H36       -10.4242   -1.8877   53.4518 H       1  ZINC001193456967    0.0900
     37 H37       -10.4680   -2.9592   52.0114 H       1  ZINC001193456967    0.0900
     38 H38       -13.6423   -0.6022   50.5366 H       1  ZINC001193456967    0.1400
     39 H39       -13.4108    1.7903   50.0042 H       1  ZINC001193456967    0.1400
     40 H40       -10.5797    2.2177   53.1705 H       1  ZINC001193456967    0.1400
     41 H41       -10.8176   -0.1743   53.7033 H       1  ZINC001193456967    0.1300
     42 H42       -14.6564   -3.5078   52.7586 H       1  ZINC001193456967    0.0700
     43 H43       -15.2784   -2.7268   54.2321 H       1  ZINC001193456967    0.0600
     44 H44       -15.1058   -1.7857   52.7312 H       1  ZINC001193456967    0.0800
     45 H45       -13.5772   -0.0863   53.9485 H       1  ZINC001193456967    0.0800
     46 H46       -13.9576   -1.0381   55.4037 H       1  ZINC001193456967    0.0900
     47 H47       -12.2616   -0.7303   54.9599 H       1  ZINC001193456967    0.0700
     48 H48       -12.0329   -1.5103   57.1279 H       1  ZINC001193456967    0.1600
@<TRIPOS>BOND
     1     1     2    1
     2     1    29    1
     3     1    30    1
     4     1    31    1
     5     2    25   ar
     6     2     3   ar
     7     3     4   ar
     8     3    32    1
     9     4     5   ar
    10     4    33    1
    11     5     6    1
    12     5    24   ar
    13     6     7    2
    14     6     8    2
    15     6     9   am
    16     9    21    1
    17     9    10    1
    18    10    11    1
    19    10    34    1
    20    10    35    1
    21    11    12    1
    22    11    36    1
    23    11    37    1
    24    12    13    1
    25    12    14    1
    26    12    21    1
    27    14    20   ar
    28    14    15   ar
    29    15    16   ar
    30    15    38    1
    31    16    17   ar
    32    16    39    1
    33    17    18    1
    34    17    19   ar
    35    19    20   ar
    36    19    40    1
    37    20    41    1
    38    21    22    1
    39    21    23    1
    40    22    42    1
    41    22    43    1
    42    22    44    1
    43    23    45    1
    44    23    46    1
    45    23    47    1
    46    24    25   ar
    47    24    48    1
    48    25    26    1
    49    26    27    2
    50    26    28    2
@<TRIPOS>SUBSTRUCTURE
     1 ZINC001193456967        1 TEMP              0 ****  ****    0 ROOT


##########                                Name:    ZINC000291574087
##########                DOCK_Rotatable_Bonds:                   8
##########                         Heavy_Atoms:                  23
##########                    Molecular_Weight:             387.249
##########                DOCK_Rotatable_Bonds:                   8
##########                       Formal_Charge:          -0.0400007
##########                     HBond_Acceptors:                   6
##########                        HBond_Donors:                   2
##########                         Heavy_Atoms:                  23
##########                          Grid_Score:          -31.982958
##########                     Grid_vdw_energy:          -32.043800
##########                      Grid_es_energy:            0.060842
##########           Internal_energy_repulsive:           33.523430

@<TRIPOS>MOLECULE
ZINC000291574087
 43 44 1 0 0
SMALL
USER_CHARGES


@<TRIPOS>ATOM
      1 C1        -13.5191   -1.5365   54.3188 C.3     1  ZINC000291574087    0.0200
      2 O2        -12.8209   -2.0812   53.1972 O.3     1  ZINC000291574087   -0.3700
      3 C3        -11.4302   -2.3103   53.4338 C.3     1  ZINC000291574087    0.1400
      4 C4        -10.7537   -2.7324   52.1281 C.3     1  ZINC000291574087   -0.1500
      5 C5        -11.2659   -3.4191   54.4751 C.3     1  ZINC000291574087    0.0900
      6 N6        -10.9859   -2.8226   55.7835 N.am    1  ZINC000291574087   -0.6900
      7 C7        -11.4466   -3.4113   56.9050 C.2     1  ZINC000291574087    0.5100
      8 O8        -12.0945   -4.4347   56.8308 O.2     1  ZINC000291574087   -0.5100
      9 C9        -11.1596   -2.8042   58.2389 C.2     1  ZINC000291574087    0.5100
     10 O10       -11.9165   -2.9953   59.1684 O.2     1  ZINC000291574087   -0.4900
     11 N11       -10.0599   -2.0441   58.4107 N.am    1  ZINC000291574087   -0.6400
     12 C12        -9.7911   -1.4755   59.6599 C.ar    1  ZINC000291574087    0.1300
     13 C13       -10.2740   -0.2105   59.9669 C.ar    1  ZINC000291574087   -0.1000
     14 C14       -10.0075    0.3487   61.2018 C.ar    1  ZINC000291574087   -0.0400
     15 C15       -10.5316    1.7217   61.5348 C.3     1  ZINC000291574087   -0.1300
     16 C16        -9.2604   -0.3499   62.1332 C.ar    1  ZINC000291574087   -0.0900
     17 Br17       -8.8997    0.4200   63.8224 Br      1  ZINC000291574087   -0.0300
     18 C18        -8.7769   -1.6112   61.8320 C.ar    1  ZINC000291574087   -0.1000
     19 C19        -9.0440   -2.1787   60.5999 C.ar    1  ZINC000291574087    0.0700
     20 F20        -8.5721   -3.4098   60.3055 F       1  ZINC000291574087   -0.1300
     21 C21       -10.7824   -1.0244   53.9513 C.3     1  ZINC000291574087   -0.1900
     22 C22        -9.5269   -0.5270   53.2324 C.3     1  ZINC000291574087   -0.1700
     23 C23       -10.8540    0.2132   53.0547 C.3     1  ZINC000291574087   -0.1600
     24 H24       -14.5678   -1.3922   54.0587 H       1  ZINC000291574087    0.0900
     25 H25       -13.4452   -2.2239   55.1616 H       1  ZINC000291574087    0.0400
     26 H26       -13.0772   -0.5782   54.5915 H       1  ZINC000291574087    0.0500
     27 H27       -10.8708   -1.9424   51.3862 H       1  ZINC000291574087    0.0700
     28 H28        -9.6930   -2.9071   52.3085 H       1  ZINC000291574087    0.0800
     29 H29       -11.2152   -3.6484   51.7593 H       1  ZINC000291574087    0.0700
     30 H30       -12.1841   -4.0038   54.5313 H       1  ZINC000291574087    0.0900
     31 H31       -10.4388   -4.0681   54.1873 H       1  ZINC000291574087    0.0800
     32 H32       -10.4690   -2.0039   55.8427 H       1  ZINC000291574087    0.4200
     33 H33        -9.4550   -1.8914   57.6681 H       1  ZINC000291574087    0.4300
     34 H34       -10.8573    0.3361   59.2407 H       1  ZINC000291574087    0.1600
     35 H35       -11.5178    1.6334   61.9906 H       1  ZINC000291574087    0.0800
     36 H36        -9.8516    2.2110   62.2321 H       1  ZINC000291574087    0.0800
     37 H37       -10.6047    2.3138   60.6226 H       1  ZINC000291574087    0.0800
     38 H38        -8.1937   -2.1539   62.5611 H       1  ZINC000291574087    0.1500
     39 H39       -10.8406   -0.8694   55.0287 H       1  ZINC000291574087    0.1100
     40 H40        -8.7585   -0.0447   53.8367 H       1  ZINC000291574087    0.1000
     41 H41        -9.1623   -1.1159   52.3907 H       1  ZINC000291574087    0.1000
     42 H42       -11.3626    0.1114   52.0960 H       1  ZINC000291574087    0.1000
     43 H43       -10.9588    1.1824   53.5421 H       1  ZINC000291574087    0.1000
@<TRIPOS>BOND
     1     1     2    1
     2     1    24    1
     3     1    25    1
     4     1    26    1
     5     2     3    1
     6     3     4    1
     7     3     5    1
     8     3    21    1
     9     4    27    1
    10     4    28    1
    11     4    29    1
    12     5     6    1
    13     5    30    1
    14     5    31    1
    15     6     7   am
    16     6    32    1
    17     7     8    2
    18     7     9    1
    19     9    10    2
    20     9    11   am
    21    11    12    1
    22    11    33    1
    23    12    19   ar
    24    12    13   ar
    25    13    14   ar
    26    13    34    1
    27    14    15    1
    28    14    16   ar
    29    15    35    1
    30    15    36    1
    31    15    37    1
    32    16    17    1
    33    16    18   ar
    34    18    19   ar
    35    18    38    1
    36    19    20    1
    37    21    23    1
    38    21    22    1
    39    21    39    1
    40    22    23    1
    41    22    40    1
    42    22    41    1
    43    23    42    1
    44    23    43    1
@<TRIPOS>SUBSTRUCTURE
     1 ZINC000291574087        1 TEMP              0 ****  ****    0 ROOT


##########                                Name:    ZINC001513543414
##########                DOCK_Rotatable_Bonds:                   6
##########                         Heavy_Atoms:                  26
##########                    Molecular_Weight:             364.488
##########                DOCK_Rotatable_Bonds:                   6
##########                       Formal_Charge:         -0.00999974
##########                     HBond_Acceptors:                   7
##########                        HBond_Donors:                   0
##########                         Heavy_Atoms:                  26
##########                          Grid_Score:          -31.981611
##########                     Grid_vdw_energy:          -31.288115
##########                      Grid_es_energy:           -0.693498
##########           Internal_energy_repulsive:           16.875465

@<TRIPOS>MOLECULE
ZINC001513543414
 58 61 1 0 0
SMALL
USER_CHARGES


@<TRIPOS>ATOM
      1 C1         -7.1336    2.4915   57.3329 C.3     1  ZINC001513543414   -0.1500
      2 C2         -8.0967    2.9573   56.2391 C.3     1  ZINC001513543414   -0.1200
      3 C3         -9.4115    2.1835   56.3539 C.3     1  ZINC001513543414    0.1100
      4 C4        -10.4820    2.8479   55.4858 C.3     1  ZINC001513543414   -0.1500
      5 C5         -9.2007    0.7225   55.9019 C.3     1  ZINC001513543414   -0.1500
      6 C6        -10.0661   -0.0663   56.9221 C.3     1  ZINC001513543414   -0.1500
      7 C7         -9.8857    0.8008   58.1934 C.3     1  ZINC001513543414    0.0700
      8 H8         -8.9529    0.5453   58.6964 H       1  ZINC001513543414    0.0800
      9 C9        -11.0702    0.6057   59.1420 C.3     1  ZINC001513543414    0.1100
     10 N10       -10.9870   -0.7196   59.7609 N.pl3   1  ZINC001513543414   -0.4600
     11 C11       -10.3814   -1.0416   60.9438 C.2     1  ZINC001513543414    0.1900
     12 C12        -9.6653   -0.0912   61.8684 C.3     1  ZINC001513543414    0.1800
     13 H13        -9.1084    0.6480   61.2927 H       1  ZINC001513543414    0.1000
     14 C14       -10.6780    0.6104   62.8081 C.3     1  ZINC001513543414   -0.1500
     15 C15        -9.7621    0.9764   64.0079 C.3     1  ZINC001513543414   -0.1500
     16 C16        -8.7736   -0.2091   64.0391 C.3     1  ZINC001513543414    0.0500
     17 O17        -8.7810   -0.8144   62.7394 O.3     1  ZINC001513543414   -0.3500
     18 N18       -10.5391   -2.3224   61.1238 N.2     1  ZINC001513543414   -0.2600
     19 N19       -11.1980   -2.8276   60.1427 N.2     1  ZINC001513543414   -0.3100
     20 C20       -11.5030   -1.8875   59.2795 C.2     1  ZINC001513543414    0.3400
     21 N21       -12.2082   -2.0513   58.0978 N.3     1  ZINC001513543414   -0.4500
     22 C22       -13.6609   -2.1434   58.3563 C.3     1  ZINC001513543414    0.0500
     23 C23       -14.1935   -3.1197   57.2780 C.3     1  ZINC001513543414   -0.1500
     24 C24       -13.0338   -4.1459   57.1842 C.3     1  ZINC001513543414    0.0700
     25 H25       -13.1165   -4.8942   57.9725 H       1  ZINC001513543414    0.0800
     26 O26       -13.0133   -4.7691   55.8984 O.3     1  ZINC001513543414   -0.3800
     27 C27       -14.2112   -5.4791   55.5775 C.3     1  ZINC001513543414    0.0300
     28 C28       -11.7787   -3.2720   57.3911 C.3     1  ZINC001513543414    0.0600
     29 O29        -9.8417    2.1563   57.7199 O.3     1  ZINC001513543414   -0.3600
     30 H30        -6.1969    3.0428   57.2511 H       1  ZINC001513543414    0.0500
     31 H31        -7.5786    2.6746   58.3109 H       1  ZINC001513543414    0.0500
     32 H32        -6.9392    1.4254   57.2160 H       1  ZINC001513543414    0.0600
     33 H33        -8.2911    4.0234   56.3560 H       1  ZINC001513543414    0.0700
     34 H34        -7.6516    2.7743   55.2611 H       1  ZINC001513543414    0.0600
     35 H35       -10.1614    2.8403   54.4441 H       1  ZINC001513543414    0.0700
     36 H36       -11.4193    2.2997   55.5815 H       1  ZINC001513543414    0.0600
     37 H37       -10.6281    3.8772   55.8134 H       1  ZINC001513543414    0.0700
     38 H38        -9.5667    0.5740   54.8860 H       1  ZINC001513543414    0.0900
     39 H39        -8.1512    0.4391   55.9827 H       1  ZINC001513543414    0.0800
     40 H40       -11.1106   -0.0954   56.6114 H       1  ZINC001513543414    0.0800
     41 H41        -9.6753   -1.0724   57.0739 H       1  ZINC001513543414    0.0900
     42 H42       -11.0446    1.3711   59.9175 H       1  ZINC001513543414    0.1000
     43 H43       -12.0016    0.6871   58.5816 H       1  ZINC001513543414    0.1100
     44 H44       -11.0915    1.5049   62.3423 H       1  ZINC001513543414    0.0900
     45 H45       -11.4701   -0.0735   63.1129 H       1  ZINC001513543414    0.0900
     46 H46        -9.2377    1.9141   63.8236 H       1  ZINC001513543414    0.0800
     47 H47       -10.3364    1.0272   64.9329 H       1  ZINC001513543414    0.0900
     48 H48        -7.7717    0.1511   64.2720 H       1  ZINC001513543414    0.0700
     49 H49        -9.0904   -0.9349   64.7880 H       1  ZINC001513543414    0.0700
     50 H50       -13.8443   -2.5429   59.3538 H       1  ZINC001513543414    0.0600
     51 H51       -14.1286   -1.1650   58.2465 H       1  ZINC001513543414    0.0900
     52 H52       -15.1146   -3.6006   57.6073 H       1  ZINC001513543414    0.0800
     53 H53       -14.3403   -2.6085   56.3267 H       1  ZINC001513543414    0.0900
     54 H54       -14.1162   -5.9228   54.5864 H       1  ZINC001513543414    0.0900
     55 H55       -14.3756   -6.2658   56.3137 H       1  ZINC001513543414    0.0400
     56 H56       -15.0557   -4.7899   55.5876 H       1  ZINC001513543414    0.0400
     57 H57       -11.3467   -3.0090   56.4255 H       1  ZINC001513543414    0.1000
     58 H58       -11.0469   -3.8109   57.9929 H       1  ZINC001513543414    0.0900
@<TRIPOS>BOND
     1     1     2    1
     2     1    30    1
     3     1    31    1
     4     1    32    1
     5     2     3    1
     6     2    33    1
     7     2    34    1
     8     3    29    1
     9     3     4    1
    10     3     5    1
    11     4    35    1
    12     4    36    1
    13     4    37    1
    14     5     6    1
    15     5    38    1
    16     5    39    1
    17     6     7    1
    18     6    40    1
    19     6    41    1
    20     7     8    1
    21     7     9    1
    22     7    29    1
    23     9    10    1
    24     9    42    1
    25     9    43    1
    26    10    20    1
    27    10    11    1
    28    11    12    1
    29    11    18    2
    30    12    13    1
    31    12    17    1
    32    12    14    1
    33    14    15    1
    34    14    44    1
    35    14    45    1
    36    15    16    1
    37    15    46    1
    38    15    47    1
    39    16    17    1
    40    16    48    1
    41    16    49    1
    42    18    19    1
    43    19    20    2
    44    20    21    1
    45    21    28    1
    46    21    22    1
    47    22    23    1
    48    22    50    1
    49    22    51    1
    50    23    24    1
    51    23    52    1
    52    23    53    1
    53    24    25    1
    54    24    26    1
    55    24    28    1
    56    26    27    1
    57    27    54    1
    58    27    55    1
    59    27    56    1
    60    28    57    1
    61    28    58    1
@<TRIPOS>SUBSTRUCTURE
     1 ZINC001513543414        1 TEMP              0 ****  ****    0 ROOT


##########                                Name:    ZINC000459459628
##########                DOCK_Rotatable_Bonds:                   8
##########                         Heavy_Atoms:                  27
##########                    Molecular_Weight:             377.366
##########                DOCK_Rotatable_Bonds:                   8
##########                       Formal_Charge:         -0.00999984
##########                     HBond_Acceptors:                   8
##########                        HBond_Donors:                   1
##########                         Heavy_Atoms:                  27
##########                          Grid_Score:          -31.970505
##########                     Grid_vdw_energy:          -31.842499
##########                      Grid_es_energy:           -0.128006
##########           Internal_energy_repulsive:           13.527223

@<TRIPOS>MOLECULE
ZINC000459459628
 45 46 1 0 0
SMALL
USER_CHARGES


@<TRIPOS>ATOM
      1 C1         -8.9130    2.5736   54.9547 C.3     1  ZINC000459459628   -0.1600
      2 C2         -9.2436    1.0811   54.8890 C.3     1  ZINC000459459628    0.1600
      3 H3         -8.3247    0.5013   54.9761 H       1  ZINC000459459628    0.1100
      4 C4         -9.9202    0.7669   53.5531 C.3     1  ZINC000459459628   -0.0900
      5 C5         -8.8969    0.8171   52.4478 C.ar    1  ZINC000459459628   -0.0500
      6 C6         -8.6385    2.0100   51.7991 C.ar    1  ZINC000459459628   -0.1200
      7 C7         -7.7001    2.0575   50.7849 C.ar    1  ZINC000459459628   -0.0900
      8 C8         -7.0193    0.9122   50.4186 C.ar    1  ZINC000459459628   -0.1600
      9 C9         -7.2769   -0.2834   51.0681 C.ar    1  ZINC000459459628    0.1000
     10 F10        -6.6120   -1.4038   50.7108 F       1  ZINC000459459628   -0.1400
     11 C11        -8.2131   -0.3286   52.0871 C.ar    1  ZINC000459459628   -0.1500
     12 N12       -10.1473    0.7322   55.9880 N.am    1  ZINC000459459628   -0.6200
     13 C13       -11.5829    0.9991   55.8687 C.3     1  ZINC000459459628    0.0700
     14 C14        -9.6580    0.1659   57.1088 C.2     1  ZINC000459459628    0.7100
     15 O15        -8.4668   -0.0569   57.2073 O.2     1  ZINC000459459628   -0.5700
     16 N16       -10.4892   -0.1536   58.1205 N.am    1  ZINC000459459628   -0.6800
     17 C17        -9.9802   -0.7427   59.2864 C.ar    1  ZINC000459459628    0.1500
     18 C18        -9.8515    0.0072   60.4409 C.ar    1  ZINC000459459628   -0.0400
     19 C19        -9.3441   -0.5841   61.6011 C.ar    1  ZINC000459459628   -0.0300
     20 C20        -9.2091    0.1877   62.7996 C.1     1  ZINC000459459628    0.2600
     21 N21        -9.1020    0.7999   63.7505 N.1     1  ZINC000459459628   -0.4100
     22 C22        -8.9693   -1.9299   61.5891 C.ar    1  ZINC000459459628   -0.0500
     23 C23        -9.0996   -2.6721   60.4345 C.ar    1  ZINC000459459628   -0.1700
     24 C24        -9.6086   -2.0878   59.2837 C.ar    1  ZINC000459459628    0.1100
     25 O25        -9.7350   -2.8236   58.1490 O.3     1  ZINC000459459628   -0.3200
     26 C26       -10.6458   -3.9240   58.1873 C.3     1  ZINC000459459628    0.4100
     27 F27       -11.9218   -3.4617   58.5267 F       1  ZINC000459459628   -0.1900
     28 F28       -10.6907   -4.5362   56.9301 F       1  ZINC000459459628   -0.1900
     29 H29        -9.8319    3.1534   54.8675 H       1  ZINC000459459628    0.0600
     30 H30        -8.4312    2.7973   55.9064 H       1  ZINC000459459628    0.0600
     31 H31        -8.2407    2.8331   54.1370 H       1  ZINC000459459628    0.0700
     32 H32       -10.3616   -0.2288   53.5947 H       1  ZINC000459459628    0.0800
     33 H33       -10.7007    1.5027   53.3593 H       1  ZINC000459459628    0.0900
     34 H34        -9.1705    2.9055   52.0845 H       1  ZINC000459459628    0.1300
     35 H35        -7.4993    2.9900   50.2785 H       1  ZINC000459459628    0.1300
     36 H36        -6.2867    0.9494   49.6259 H       1  ZINC000459459628    0.1300
     37 H37        -8.4145   -1.2604   52.5945 H       1  ZINC000459459628    0.1300
     38 H38       -12.0780    0.1334   55.4288 H       1  ZINC000459459628    0.0600
     39 H39       -11.9998    1.1929   56.8570 H       1  ZINC000459459628    0.0700
     40 H40       -11.7389    1.8695   55.2314 H       1  ZINC000459459628    0.0800
     41 H41       -11.4395    0.0241   58.0420 H       1  ZINC000459459628    0.4100
     42 H42       -10.1421    1.0474   60.4460 H       1  ZINC000459459628    0.1600
     43 H43        -8.5769   -2.3889   62.4845 H       1  ZINC000459459628    0.1400
     44 H44        -8.8087   -3.7121   60.4271 H       1  ZINC000459459628    0.1500
     45 H45       -10.3113   -4.6468   58.9316 H       1  ZINC000459459628    0.1900
@<TRIPOS>BOND
     1     1     2    1
     2     1    29    1
     3     1    30    1
     4     1    31    1
     5     2     3    1
     6     2     4    1
     7     2    12    1
     8     4     5    1
     9     4    32    1
    10     4    33    1
    11     5    11   ar
    12     5     6   ar
    13     6     7   ar
    14     6    34    1
    15     7     8   ar
    16     7    35    1
    17     8     9   ar
    18     8    36    1
    19     9    10    1
    20     9    11   ar
    21    11    37    1
    22    12    13    1
    23    12    14   am
    24    13    38    1
    25    13    39    1
    26    13    40    1
    27    14    15    2
    28    14    16   am
    29    16    17    1
    30    16    41    1
    31    17    24   ar
    32    17    18   ar
    33    18    19   ar
    34    18    42    1
    35    19    20    1
    36    19    22   ar
    37    20    21    3
    38    22    23   ar
    39    22    43    1
    40    23    24   ar
    41    23    44    1
    42    24    25    1
    43    25    26    1
    44    26    27    1
    45    26    28    1
    46    26    45    1
@<TRIPOS>SUBSTRUCTURE
     1 ZINC000459459628        1 TEMP              0 ****  ****    0 ROOT


##########                                Name:    ZINC000279452407
##########                DOCK_Rotatable_Bonds:                   6
##########                         Heavy_Atoms:                  24
##########                    Molecular_Weight:              375.47
##########                DOCK_Rotatable_Bonds:                   6
##########                       Formal_Charge:          0.00999929
##########                     HBond_Acceptors:                  10
##########                        HBond_Donors:                   3
##########                         Heavy_Atoms:                  24
##########                          Grid_Score:          -31.939125
##########                     Grid_vdw_energy:          -29.572144
##########                      Grid_es_energy:           -2.366982
##########           Internal_energy_repulsive:           26.607098

@<TRIPOS>MOLECULE
ZINC000279452407
 45 47 1 0 0
SMALL
USER_CHARGES


@<TRIPOS>ATOM
      1 C1        -11.5033   -4.6633   57.6866 C.3     1  ZINC000279452407   -0.1600
      2 C2        -12.8707   -4.5871   57.0045 C.3     1  ZINC000279452407    0.0600
      3 H3        -13.6558   -4.8356   57.7186 H       1  ZINC000279452407    0.0700
      4 O4        -12.9145   -5.4982   55.8915 O.3     1  ZINC000279452407   -0.3700
      5 C5        -13.7345   -4.8827   54.8742 C.3     1  ZINC000279452407    0.0500
      6 C6        -13.3237   -3.3882   54.9312 C.3     1  ZINC000279452407   -0.1400
      7 C7        -13.0991   -3.1746   56.4468 C.3     1  ZINC000279452407    0.0700
      8 C8        -11.8625   -2.3084   56.6729 C.3     1  ZINC000279452407    0.1100
      9 N9        -11.7807   -1.9778   58.1056 N.am    1  ZINC000279452407   -0.6300
     10 C10       -10.6354   -2.1512   58.7946 C.2     1  ZINC000279452407    0.7200
     11 O11        -9.6486   -2.5871   58.2338 O.2     1  ZINC000279452407   -0.5800
     12 N12       -10.5839   -1.8414   60.1053 N.am    1  ZINC000279452407   -0.7500
     13 C13        -9.3390   -2.0299   60.8541 C.3     1  ZINC000279452407    0.2000
     14 C14        -9.2794   -1.0383   61.9873 C.2     1  ZINC000279452407   -0.1700
     15 C15        -8.5954   -1.2055   63.1203 C.2     1  ZINC000279452407   -0.1400
     16 C16        -8.6893   -0.1565   64.0185 C.2     1  ZINC000279452407    0.0100
     17 C17        -9.4494    0.8626   63.6150 C.2     1  ZINC000279452407   -0.7900
     18 S18        -9.7539    2.3311   64.5400 S.o2    1  ZINC000279452407    2.7300
     19 N19        -9.9061    3.5718   63.4539 N.am    1  ZINC000279452407   -1.2500
     20 O20       -11.0299    2.1676   65.1438 O.2     1  ZINC000279452407   -0.9600
     21 O21        -8.5703    2.5904   65.2823 O.2     1  ZINC000279452407   -0.9500
     22 S22       -10.0947    0.5198   62.0151 S.3     1  ZINC000279452407    0.2500
     23 C23       -12.9885   -1.4517   58.7615 C.3     1  ZINC000279452407    0.0700
     24 C24       -14.1590   -2.3912   58.4496 C.3     1  ZINC000279452407    0.0400
     25 O25       -14.2488   -2.5779   57.0340 O.3     1  ZINC000279452407   -0.3600
     26 H26       -11.5079   -4.0395   58.5804 H       1  ZINC000279452407    0.0700
     27 H27       -11.2932   -5.6959   57.9653 H       1  ZINC000279452407    0.0600
     28 H28       -10.7346   -4.3086   57.0000 H       1  ZINC000279452407    0.0800
     29 H29       -13.5113   -5.3049   53.8944 H       1  ZINC000279452407    0.1000
     30 H30       -14.7919   -4.9993   55.1115 H       1  ZINC000279452407    0.0700
     31 H31       -12.4044   -3.2154   54.3715 H       1  ZINC000279452407    0.1000
     32 H32       -14.1271   -2.7494   54.5644 H       1  ZINC000279452407    0.1000
     33 H33       -10.9705   -2.8576   56.3722 H       1  ZINC000279452407    0.1200
     34 H34       -11.9460   -1.3914   56.0896 H       1  ZINC000279452407    0.0800
     35 H35       -11.3712   -1.4937   60.5527 H       1  ZINC000279452407    0.4000
     36 H36        -9.3061   -3.0428   61.2555 H       1  ZINC000279452407    0.1000
     37 H37        -8.4885   -1.8745   60.1902 H       1  ZINC000279452407    0.0900
     38 H38        -8.0129   -2.0924   63.3217 H       1  ZINC000279452407    0.1600
     39 H39        -8.1855   -0.1630   64.9739 H       1  ZINC000279452407    0.1600
     40 H40        -9.1711    3.7886   62.8591 H       1  ZINC000279452407    0.4200
     41 H41       -10.7301    4.0819   63.4126 H       1  ZINC000279452407    0.4200
     42 H42       -12.8308   -1.4083   59.8391 H       1  ZINC000279452407    0.0900
     43 H43       -13.2076   -0.4545   58.3799 H       1  ZINC000279452407    0.0900
     44 H44       -13.9924   -3.3534   58.9338 H       1  ZINC000279452407    0.0600
     45 H45       -15.0861   -1.9527   58.8186 H       1  ZINC000279452407    0.1100
@<TRIPOS>BOND
     1     1     2    1
     2     1    26    1
     3     1    27    1
     4     1    28    1
     5     2     3    1
     6     2     7    1
     7     2     4    1
     8     4     5    1
     9     5     6    1
    10     5    29    1
    11     5    30    1
    12     6     7    1
    13     6    31    1
    14     6    32    1
    15     7    25    1
    16     7     8    1
    17     8     9    1
    18     8    33    1
    19     8    34    1
    20     9    10   am
    21     9    23    1
    22    10    11    2
    23    10    12   am
    24    12    13    1
    25    12    35    1
    26    13    14    1
    27    13    36    1
    28    13    37    1
    29    14    22    1
    30    14    15    2
    31    15    16    1
    32    15    38    1
    33    16    17    2
    34    16    39    1
    35    17    18    1
    36    17    22    1
    37    18    19   am
    38    18    20    2
    39    18    21    2
    40    19    40    1
    41    19    41    1
    42    23    24    1
    43    23    42    1
    44    23    43    1
    45    24    25    1
    46    24    44    1
    47    24    45    1
@<TRIPOS>SUBSTRUCTURE
     1 ZINC000279452407        1 TEMP              0 ****  ****    0 ROOT


##########                                Name:    ZINC000464706598
##########                DOCK_Rotatable_Bonds:                   4
##########                         Heavy_Atoms:                  26
##########                    Molecular_Weight:             412.286
##########                DOCK_Rotatable_Bonds:                   4
##########                       Formal_Charge:           0.0100001
##########                     HBond_Acceptors:                   5
##########                        HBond_Donors:                   0
##########                         Heavy_Atoms:                  26
##########                          Grid_Score:          -31.936512
##########                     Grid_vdw_energy:          -31.838160
##########                      Grid_es_energy:           -0.098353
##########           Internal_energy_repulsive:           57.680515

@<TRIPOS>MOLECULE
ZINC000464706598
 44 47 1 0 0
SMALL
USER_CHARGES


@<TRIPOS>ATOM
      1 O1        -10.8473   -1.8135   56.1446 O.2     1  ZINC000464706598   -0.5000
      2 C2        -11.4134   -2.0565   57.1931 C.2     1  ZINC000464706598    0.5900
      3 C3        -10.6702   -1.9910   58.4645 C.2     1  ZINC000464706598   -0.2800
      4 C4        -10.7000   -0.9567   59.3787 C.2     1  ZINC000464706598    0.1300
      5 N5         -9.8846   -1.2943   60.3941 N.pl3   1  ZINC000464706598   -0.3100
      6 C6         -9.6298   -0.5182   61.5331 C.ar    1  ZINC000464706598    0.1700
      7 C7        -10.0929    0.7890   61.6018 C.ar    1  ZINC000464706598   -0.1300
      8 C8         -9.8409    1.5515   62.7254 C.ar    1  ZINC000464706598   -0.0600
      9 C9         -9.1271    1.0140   63.7819 C.ar    1  ZINC000464706598   -0.1000
     10 Br10       -8.7833    2.0611   65.3185 Br      1  ZINC000464706598   -0.0400
     11 C11        -8.6648   -0.2885   63.7161 C.ar    1  ZINC000464706598   -0.0700
     12 C12        -8.9186   -1.0569   62.5970 C.ar    1  ZINC000464706598   -0.1100
     13 N13        -9.3343   -2.5517   60.1211 N.2     1  ZINC000464706598   -0.2800
     14 C14        -9.7987   -2.9777   58.9786 C.2     1  ZINC000464706598    0.0700
     15 N15       -12.7217   -2.3803   57.1932 N.am    1  ZINC000464706598   -0.6100
     16 C16       -13.4296   -2.6723   58.4497 C.3     1  ZINC000464706598    0.0400
     17 C17       -14.1738   -4.0027   58.2874 C.3     1  ZINC000464706598    0.0500
     18 O18       -14.9747   -3.9528   57.1043 O.3     1  ZINC000464706598   -0.3700
     19 C19       -14.2259   -3.7929   55.8970 C.3     1  ZINC000464706598    0.0500
     20 C20       -13.4858   -2.4463   55.9373 C.3     1  ZINC000464706598    0.1600
     21 H21       -14.2068   -1.6298   55.8965 H       1  ZINC000464706598    0.0900
     22 C22       -12.5432   -2.3499   54.7656 C.ar    1  ZINC000464706598   -0.0500
     23 C23       -12.4606   -1.1763   54.0396 C.ar    1  ZINC000464706598   -0.1000
     24 C24       -11.5960   -1.0878   52.9648 C.ar    1  ZINC000464706598   -0.1100
     25 C25       -10.8135   -2.1727   52.6160 C.ar    1  ZINC000464706598   -0.1200
     26 C26       -10.8953   -3.3459   53.3425 C.ar    1  ZINC000464706598   -0.1100
     27 C27       -11.7568   -3.4330   54.4200 C.ar    1  ZINC000464706598   -0.1000
     28 H28       -11.2719   -0.0445   59.2940 H       1  ZINC000464706598    0.1900
     29 H29       -10.6496    1.2092   60.7772 H       1  ZINC000464706598    0.1400
     30 H30       -10.2009    2.5683   62.7793 H       1  ZINC000464706598    0.1500
     31 H31        -8.1082   -0.7057   64.5422 H       1  ZINC000464706598    0.1500
     32 H32        -8.5580   -2.0736   62.5463 H       1  ZINC000464706598    0.1500
     33 H33        -9.5547   -3.9172   58.5054 H       1  ZINC000464706598    0.2100
     34 H34       -12.7116   -2.7506   59.2660 H       1  ZINC000464706598    0.1200
     35 H35       -14.1431   -1.8762   58.6627 H       1  ZINC000464706598    0.0800
     36 H36       -13.4525   -4.8156   58.2047 H       1  ZINC000464706598    0.0600
     37 H37       -14.8140   -4.1698   59.1536 H       1  ZINC000464706598    0.1100
     38 H38       -13.5047   -4.6051   55.8056 H       1  ZINC000464706598    0.0600
     39 H39       -14.9036   -3.8090   55.0434 H       1  ZINC000464706598    0.1100
     40 H40       -13.0720   -0.3287   54.3121 H       1  ZINC000464706598    0.1100
     41 H41       -11.5320   -0.1712   52.3972 H       1  ZINC000464706598    0.1200
     42 H42       -10.1384   -2.1037   51.7758 H       1  ZINC000464706598    0.1200
     43 H43       -10.2842   -4.1936   53.0699 H       1  ZINC000464706598    0.1200
     44 H44       -11.8208   -4.3496   54.9876 H       1  ZINC000464706598    0.1100
@<TRIPOS>BOND
     1     1     2    2
     2     2     3    1
     3     2    15   am
     4     3    14    1
     5     3     4    2
     6     4     5    1
     7     4    28    1
     8     5     6    1
     9     5    13    1
    10     6    12   ar
    11     6     7   ar
    12     7     8   ar
    13     7    29    1
    14     8     9   ar
    15     8    30    1
    16     9    10    1
    17     9    11   ar
    18    11    12   ar
    19    11    31    1
    20    12    32    1
    21    13    14    2
    22    14    33    1
    23    15    20    1
    24    15    16    1
    25    16    17    1
    26    16    34    1
    27    16    35    1
    28    17    18    1
    29    17    36    1
    30    17    37    1
    31    18    19    1
    32    19    20    1
    33    19    38    1
    34    19    39    1
    35    20    21    1
    36    20    22    1
    37    22    27   ar
    38    22    23   ar
    39    23    24   ar
    40    23    40    1
    41    24    25   ar
    42    24    41    1
    43    25    26   ar
    44    25    42    1
    45    26    27   ar
    46    26    43    1
    47    27    44    1
@<TRIPOS>SUBSTRUCTURE
     1 ZINC000464706598        1 TEMP              0 ****  ****    0 ROOT


##########                                Name:    ZINC000464752079
##########                DOCK_Rotatable_Bonds:                   7
##########                         Heavy_Atoms:                  29
##########                    Molecular_Weight:             404.413
##########                DOCK_Rotatable_Bonds:                   7
##########                       Formal_Charge:         7.45058e-08
##########                     HBond_Acceptors:                   8
##########                        HBond_Donors:                   1
##########                         Heavy_Atoms:                  29
##########                          Grid_Score:          -31.932747
##########                     Grid_vdw_energy:          -31.000971
##########                      Grid_es_energy:           -0.931775
##########           Internal_energy_repulsive:           17.181982

@<TRIPOS>MOLECULE
ZINC000464752079
 51 54 1 0 0
SMALL
USER_CHARGES


@<TRIPOS>ATOM
      1 C1        -14.9942   -2.0041   60.4348 C.3     1  ZINC000464752079   -0.1200
      2 C2        -14.4389   -1.2855   59.2320 C.ar    1  ZINC000464752079   -0.0800
      3 C3        -14.4922    0.0939   59.1658 C.ar    1  ZINC000464752079   -0.1200
      4 C4        -13.9828    0.7532   58.0623 C.ar    1  ZINC000464752079   -0.1200
      5 C5        -13.4200    0.0327   57.0257 C.ar    1  ZINC000464752079   -0.1300
      6 C6        -13.3660   -1.3472   57.0925 C.ar    1  ZINC000464752079   -0.0900
      7 C7        -13.8713   -2.0060   58.1975 C.ar    1  ZINC000464752079   -0.0800
      8 C8        -13.8124   -3.5101   58.2702 C.3     1  ZINC000464752079    0.2000
      9 H9        -13.8264   -3.8315   59.3117 H       1  ZINC000464752079    0.0900
     10 C10       -15.0134   -4.1194   57.5167 C.3     1  ZINC000464752079   -0.1200
     11 C11       -14.3953   -5.3638   56.8261 C.3     1  ZINC000464752079   -0.1300
     12 C12       -12.9767   -4.8512   56.4736 C.3     1  ZINC000464752079    0.1000
     13 N13       -12.5895   -3.9949   57.6137 N.am    1  ZINC000464752079   -0.6300
     14 C14       -11.3268   -3.7055   57.9855 C.2     1  ZINC000464752079    0.7200
     15 O15       -10.3892   -4.1630   57.3610 O.2     1  ZINC000464752079   -0.5700
     16 N16       -11.1033   -2.9091   59.0495 N.am    1  ZINC000464752079   -0.7400
     17 C17        -9.7308   -2.5931   59.4525 C.3     1  ZINC000464752079    0.1900
     18 C18        -9.7327   -1.3586   60.3169 C.ar    1  ZINC000464752079   -0.1200
     19 C19        -9.3320   -1.4399   61.6372 C.ar    1  ZINC000464752079   -0.0500
     20 C20        -9.3330   -0.3071   62.4346 C.ar    1  ZINC000464752079    0.0100
     21 C21        -9.7381    0.9152   61.9043 C.ar    1  ZINC000464752079    0.0800
     22 C22       -10.1381    0.9945   60.5804 C.ar    1  ZINC000464752079   -0.1800
     23 C23       -10.1311   -0.1412   59.7850 C.ar    1  ZINC000464752079    0.1400
     24 O24       -10.5235   -0.0632   58.4854 O.3     1  ZINC000464752079   -0.3100
     25 C25        -9.6491    0.6180   57.5836 C.3     1  ZINC000464752079    0.4100
     26 F26        -8.3326    0.2000   57.8053 F       1  ZINC000464752079   -0.2000
     27 F27       -10.0163    0.3235   56.2662 F       1  ZINC000464752079   -0.2000
     28 O28        -9.6496    1.8652   62.8805 O.3     1  ZINC000464752079   -0.3000
     29 C29        -9.5777    1.1372   64.1206 C.3     1  ZINC000464752079    0.2100
     30 O30        -8.9905   -0.1224   63.7440 O.3     1  ZINC000464752079   -0.3000
     31 H31       -14.2112   -2.1157   61.1848 H       1  ZINC000464752079    0.0700
     32 H32       -15.8190   -1.4277   60.8537 H       1  ZINC000464752079    0.0700
     33 H33       -15.3538   -2.9887   60.1358 H       1  ZINC000464752079    0.0700
     34 H34       -14.9319    0.6569   59.9757 H       1  ZINC000464752079    0.1200
     35 H35       -14.0250    1.8311   58.0103 H       1  ZINC000464752079    0.1200
     36 H36       -13.0227    0.5476   56.1635 H       1  ZINC000464752079    0.1200
     37 H37       -12.9266   -1.9102   56.2824 H       1  ZINC000464752079    0.1100
     38 H38       -15.7969   -4.4150   58.2146 H       1  ZINC000464752079    0.0900
     39 H39       -15.3994   -3.4192   56.7760 H       1  ZINC000464752079    0.0800
     40 H40       -14.3461   -6.2080   57.5138 H       1  ZINC000464752079    0.0800
     41 H41       -14.9505   -5.6270   55.9257 H       1  ZINC000464752079    0.0900
     42 H42       -12.2844   -5.6876   56.3769 H       1  ZINC000464752079    0.0700
     43 H43       -13.0015   -4.2697   55.5521 H       1  ZINC000464752079    0.0700
     44 H44       -11.8514   -2.5450   59.5484 H       1  ZINC000464752079    0.4000
     45 H45        -9.3155   -3.4296   60.0147 H       1  ZINC000464752079    0.0800
     46 H46        -9.1235   -2.4144   58.5652 H       1  ZINC000464752079    0.0800
     47 H47        -9.0180   -2.3881   62.0480 H       1  ZINC000464752079    0.1500
     48 H48       -10.4526    1.9414   60.1670 H       1  ZINC000464752079    0.1500
     49 H49        -9.7219    1.6930   57.7494 H       1  ZINC000464752079    0.1900
     50 H50        -8.9401    1.6588   64.8345 H       1  ZINC000464752079    0.1400
     51 H51       -10.5747    0.9865   64.5347 H       1  ZINC000464752079    0.0900
@<TRIPOS>BOND
     1     1     2    1
     2     1    31    1
     3     1    32    1
     4     1    33    1
     5     2     7   ar
     6     2     3   ar
     7     3     4   ar
     8     3    34    1
     9     4     5   ar
    10     4    35    1
    11     5     6   ar
    12     5    36    1
    13     6     7   ar
    14     6    37    1
    15     7     8    1
    16     8     9    1
    17     8    13    1
    18     8    10    1
    19    10    11    1
    20    10    38    1
    21    10    39    1
    22    11    12    1
    23    11    40    1
    24    11    41    1
    25    12    13    1
    26    12    42    1
    27    12    43    1
    28    13    14   am
    29    14    15    2
    30    14    16   am
    31    16    17    1
    32    16    44    1
    33    17    18    1
    34    17    45    1
    35    17    46    1
    36    18    23   ar
    37    18    19   ar
    38    19    20   ar
    39    19    47    1
    40    20    30    1
    41    20    21   ar
    42    21    22   ar
    43    21    28    1
    44    22    23   ar
    45    22    48    1
    46    23    24    1
    47    24    25    1
    48    25    26    1
    49    25    27    1
    50    25    49    1
    51    28    29    1
    52    29    30    1
    53    29    50    1
    54    29    51    1
@<TRIPOS>SUBSTRUCTURE
     1 ZINC000464752079        1 TEMP              0 ****  ****    0 ROOT


##########                                Name:    ZINC000549381790
##########                DOCK_Rotatable_Bonds:                   7
##########                         Heavy_Atoms:                  23
##########                    Molecular_Weight:             337.846
##########                DOCK_Rotatable_Bonds:                   7
##########                       Formal_Charge:           0.0300006
##########                     HBond_Acceptors:                   5
##########                        HBond_Donors:                   0
##########                         Heavy_Atoms:                  23
##########                          Grid_Score:          -31.931467
##########                     Grid_vdw_energy:          -31.149336
##########                      Grid_es_energy:           -0.782131
##########           Internal_energy_repulsive:           89.308113

@<TRIPOS>MOLECULE
ZINC000549381790
 47 49 1 0 0
SMALL
USER_CHARGES


@<TRIPOS>ATOM
      1 C1        -10.9868   -2.3513   52.0677 C.3     1  ZINC000549381790   -0.1400
      2 C2        -12.1773   -1.5898   52.6538 C.3     1  ZINC000549381790    0.1500
      3 H3        -11.9271   -0.5326   52.7425 H       1  ZINC000549381790    0.0700
      4 C4        -13.3938   -1.7545   51.7374 C.3     1  ZINC000549381790   -0.1300
      5 C5        -14.6151   -1.1091   52.3964 C.3     1  ZINC000549381790   -0.1200
      6 C6        -14.9114   -1.8115   53.7234 C.3     1  ZINC000549381790   -0.1400
      7 C7        -13.7122   -1.6475   54.6624 C.3     1  ZINC000549381790    0.1000
      8 N8        -12.5039   -2.1315   53.9799 N.am    1  ZINC000549381790   -0.6100
      9 C9        -11.7137   -3.0581   54.5574 C.2     1  ZINC000549381790    0.5200
     10 O10       -10.7193   -3.4495   53.9838 O.2     1  ZINC000549381790   -0.5000
     11 C11       -12.0659   -3.6078   55.9156 C.3     1  ZINC000549381790    0.0400
     12 O12       -10.8802   -4.0749   56.5624 O.3     1  ZINC000549381790   -0.2800
     13 C13       -10.4590   -3.3825   57.6543 C.ar    1  ZINC000549381790    0.1100
     14 C14       -10.2386   -4.0447   58.8526 C.ar    1  ZINC000549381790   -0.1700
     15 C15        -9.8102   -3.3417   59.9623 C.ar    1  ZINC000549381790   -0.1600
     16 C16        -9.6009   -1.9737   59.8784 C.ar    1  ZINC000549381790    0.1100
     17 O17        -9.1793   -1.2818   60.9708 O.3     1  ZINC000549381790   -0.3000
     18 C18       -10.1882   -0.7113   61.8066 C.3     1  ZINC000549381790    0.0900
     19 C19        -9.5507   -0.2034   63.1014 C.3     1  ZINC000549381790   -0.1600
     20 C20        -9.2680    1.2964   63.2086 C.3     1  ZINC000549381790   -0.1700
     21 C21       -10.4093    0.6736   64.0150 C.3     1  ZINC000549381790   -0.1700
     22 C22        -9.8215   -1.3104   58.6791 C.ar    1  ZINC000549381790   -0.0300
     23 Cl23       -9.5592    0.4025   58.5732 Cl      1  ZINC000549381790   -0.0400
     24 C24       -10.2444   -2.0148   57.5679 C.ar    1  ZINC000549381790   -0.1000
     25 H25       -11.2009   -3.4201   52.0730 H       1  ZINC000549381790    0.0600
     26 H26       -10.8125   -2.0208   51.0438 H       1  ZINC000549381790    0.0500
     27 H27       -10.0988   -2.1556   52.6687 H       1  ZINC000549381790    0.0800
     28 H28       -13.1973   -1.2692   50.7813 H       1  ZINC000549381790    0.0800
     29 H29       -13.5860   -2.8150   51.5749 H       1  ZINC000549381790    0.0700
     30 H30       -14.4129   -0.0540   52.5811 H       1  ZINC000549381790    0.0700
     31 H31       -15.4766   -1.2032   51.7353 H       1  ZINC000549381790    0.0700
     32 H32       -15.7952   -1.3667   54.1810 H       1  ZINC000549381790    0.0800
     33 H33       -15.0893   -2.8714   53.5422 H       1  ZINC000549381790    0.0700
     34 H34       -13.5887   -0.5948   54.9168 H       1  ZINC000549381790    0.0800
     35 H35       -13.8767   -2.2281   55.5701 H       1  ZINC000549381790    0.0800
     36 H36       -12.5230   -2.8228   56.5180 H       1  ZINC000549381790    0.0900
     37 H37       -12.7676   -4.4341   55.8025 H       1  ZINC000549381790    0.0900
     38 H38       -10.4020   -5.1102   58.9186 H       1  ZINC000549381790    0.1400
     39 H39        -9.6386   -3.8578   60.8954 H       1  ZINC000549381790    0.1400
     40 H40       -10.6645    0.1195   61.2859 H       1  ZINC000549381790    0.0700
     41 H41       -10.9357   -1.4688   62.0425 H       1  ZINC000549381790    0.0700
     42 H42        -8.8442   -0.8843   63.5761 H       1  ZINC000549381790    0.1200
     43 H43        -8.3752    1.6025   63.7539 H       1  ZINC000549381790    0.1000
     44 H44        -9.5361    1.9212   62.3567 H       1  ZINC000549381790    0.1000
     45 H45       -11.4284    0.8886   63.6936 H       1  ZINC000549381790    0.1000
     46 H46       -10.2674    0.5699   65.0907 H       1  ZINC000549381790    0.1000
     47 H47       -10.4162   -1.4991   56.6346 H       1  ZINC000549381790    0.1500
@<TRIPOS>BOND
     1     1     2    1
     2     1    25    1
     3     1    26    1
     4     1    27    1
     5     2     3    1
     6     2     8    1
     7     2     4    1
     8     4     5    1
     9     4    28    1
    10     4    29    1
    11     5     6    1
    12     5    30    1
    13     5    31    1
    14     6     7    1
    15     6    32    1
    16     6    33    1
    17     7     8    1
    18     7    34    1
    19     7    35    1
    20     8     9   am
    21     9    10    2
    22     9    11    1
    23    11    12    1
    24    11    36    1
    25    11    37    1
    26    12    13    1
    27    13    24   ar
    28    13    14   ar
    29    14    15   ar
    30    14    38    1
    31    15    16   ar
    32    15    39    1
    33    16    17    1
    34    16    22   ar
    35    17    18    1
    36    18    19    1
    37    18    40    1
    38    18    41    1
    39    19    21    1
    40    19    20    1
    41    19    42    1
    42    20    21    1
    43    20    43    1
    44    20    44    1
    45    21    45    1
    46    21    46    1
    47    22    23    1
    48    22    24   ar
    49    24    47    1
@<TRIPOS>SUBSTRUCTURE
     1 ZINC000549381790        1 TEMP              0 ****  ****    0 ROOT


##########                                Name:    ZINC000470948647
##########                DOCK_Rotatable_Bonds:                   6
##########                         Heavy_Atoms:                  29
##########                    Molecular_Weight:             412.556
##########                DOCK_Rotatable_Bonds:                   6
##########                       Formal_Charge:           0.0100001
##########                     HBond_Acceptors:                   7
##########                        HBond_Donors:                   1
##########                         Heavy_Atoms:                  29
##########                          Grid_Score:          -31.927221
##########                     Grid_vdw_energy:          -31.021473
##########                      Grid_es_energy:           -0.905748
##########           Internal_energy_repulsive:           19.133461

@<TRIPOS>MOLECULE
ZINC000470948647
 57 60 1 0 0
SMALL
USER_CHARGES


@<TRIPOS>ATOM
      1 C1        -10.1910    1.0848   62.7497 C.3     1  ZINC000470948647   -0.1100
      2 C2        -10.8733    0.2182   61.7229 C.ar    1  ZINC000470948647   -0.1000
      3 C3        -10.4133    0.2011   60.4192 C.ar    1  ZINC000470948647   -0.1100
      4 C4        -11.0366   -0.5922   59.4757 C.ar    1  ZINC000470948647   -0.1100
      5 C5        -12.1259   -1.3732   59.8377 C.ar    1  ZINC000470948647    0.1400
      6 N6        -12.7592   -2.1782   58.8845 N.am    1  ZINC000470948647   -0.6700
      7 C7        -12.1009   -3.2190   58.3368 C.2     1  ZINC000470948647    0.5100
      8 O8        -10.9595   -3.4578   58.6704 O.2     1  ZINC000470948647   -0.4800
      9 C9        -12.7830   -4.0860   57.3101 C.3     1  ZINC000470948647    0.1200
     10 H10       -12.1692   -4.9697   57.1357 H       1  ZINC000470948647    0.1200
     11 C11       -14.1524   -4.5344   57.8692 C.3     1  ZINC000470948647   -0.0700
     12 S12       -15.2834   -3.3156   57.0765 S.3     1  ZINC000470948647   -0.2500
     13 C13       -14.2627   -3.1701   55.5517 C.3     1  ZINC000470948647    0.1600
     14 N14       -12.8926   -3.3396   56.0660 N.am    1  ZINC000470948647   -0.6000
     15 C15       -11.8146   -2.8413   55.4286 C.2     1  ZINC000470948647    0.6300
     16 O16       -10.7033   -3.0083   55.8924 O.2     1  ZINC000470948647   -0.5100
     17 C17       -11.9834   -2.0925   54.1667 C.2     1  ZINC000470948647   -0.0100
     18 N18       -12.8545   -2.3509   53.2118 N.2     1  ZINC000470948647   -0.2700
     19 N19       -12.7270   -1.5011   52.2569 N.pl3   1  ZINC000470948647   -0.2700
     20 C20       -13.5330   -1.4881   51.0336 C.3     1  ZINC000470948647    0.1500
     21 C21       -14.9237   -2.0512   51.3331 C.3     1  ZINC000470948647   -0.1300
     22 C22       -15.7654   -2.0376   50.0554 C.3     1  ZINC000470948647   -0.1200
     23 C23       -15.8958   -0.6009   49.5458 C.3     1  ZINC000470948647   -0.1300
     24 C24       -14.5050   -0.0378   49.2464 C.3     1  ZINC000470948647   -0.1200
     25 C25       -13.6633   -0.0513   50.5239 C.3     1  ZINC000470948647   -0.1300
     26 C26       -11.7433   -0.6213   52.5430 C.2     1  ZINC000470948647   -0.0100
     27 C27       -11.2449   -0.9575   53.7558 C.2     1  ZINC000470948647   -0.1700
     28 C28       -12.5854   -1.3542   61.1484 C.ar    1  ZINC000470948647   -0.1100
     29 C29       -13.7670   -2.2008   61.5458 C.3     1  ZINC000470948647   -0.1100
     30 C30       -11.9548   -0.5628   62.0880 C.ar    1  ZINC000470948647   -0.1000
     31 H31        -9.3902    0.5201   63.2274 H       1  ZINC000470948647    0.0700
     32 H32        -9.7734    1.9657   62.2621 H       1  ZINC000470948647    0.0700
     33 H33       -10.9155    1.3953   63.5025 H       1  ZINC000470948647    0.0700
     34 H34        -9.5660    0.8089   60.1382 H       1  ZINC000470948647    0.1200
     35 H35       -10.6772   -0.6045   58.4572 H       1  ZINC000470948647    0.1400
     36 H36       -13.6722   -1.9873   58.6177 H       1  ZINC000470948647    0.4100
     37 H37       -14.3897   -5.5509   57.5549 H       1  ZINC000470948647    0.1200
     38 H38       -14.1800   -4.4457   58.9552 H       1  ZINC000470948647    0.1200
     39 H39       -14.5116   -3.9601   54.8430 H       1  ZINC000470948647    0.1000
     40 H40       -14.3859   -2.1876   55.0961 H       1  ZINC000470948647    0.1400
     41 H41       -13.0489   -2.1008   50.2731 H       1  ZINC000470948647    0.1100
     42 H42       -14.8307   -3.0747   51.6962 H       1  ZINC000470948647    0.0800
     43 H43       -15.4077   -1.4384   52.0936 H       1  ZINC000470948647    0.0800
     44 H44       -15.2814   -2.6504   49.2950 H       1  ZINC000470948647    0.0700
     45 H45       -16.7562   -2.4388   50.2689 H       1  ZINC000470948647    0.0800
     46 H46       -16.4954   -0.5912   48.6357 H       1  ZINC000470948647    0.0700
     47 H47       -16.3798    0.0119   50.3064 H       1  ZINC000470948647    0.0700
     48 H48       -14.0210   -0.6505   48.4859 H       1  ZINC000470948647    0.0700
     49 H49       -14.5980    0.9858   48.8833 H       1  ZINC000470948647    0.0700
     50 H50       -14.1473    0.5614   51.2845 H       1  ZINC000470948647    0.0700
     51 H51       -12.6725    0.3498   50.3106 H       1  ZINC000470948647    0.0700
     52 H52       -11.4182    0.2004   51.9221 H       1  ZINC000470948647    0.1800
     53 H53       -10.4468   -0.4672   54.2933 H       1  ZINC000470948647    0.1600
     54 H54       -13.4184   -3.1797   61.8750 H       1  ZINC000470948647    0.0700
     55 H55       -14.3052   -1.7144   62.3593 H       1  ZINC000470948647    0.0700
     56 H56       -14.4321   -2.3208   60.6906 H       1  ZINC000470948647    0.0600
     57 H57       -12.3114   -0.5478   63.1073 H       1  ZINC000470948647    0.1300
@<TRIPOS>BOND
     1     1     2    1
     2     1    31    1
     3     1    32    1
     4     1    33    1
     5     2    30   ar
     6     2     3   ar
     7     3     4   ar
     8     3    34    1
     9     4     5   ar
    10     4    35    1
    11     5     6    1
    12     5    28   ar
    13     6     7   am
    14     6    36    1
    15     7     8    2
    16     7     9    1
    17     9    10    1
    18     9    14    1
    19     9    11    1
    20    11    12    1
    21    11    37    1
    22    11    38    1
    23    12    13    1
    24    13    14    1
    25    13    39    1
    26    13    40    1
    27    14    15   am
    28    15    16    2
    29    15    17    1
    30    17    27    1
    31    17    18    2
    32    18    19    1
    33    19    20    1
    34    19    26    1
    35    20    25    1
    36    20    21    1
    37    20    41    1
    38    21    22    1
    39    21    42    1
    40    21    43    1
    41    22    23    1
    42    22    44    1
    43    22    45    1
    44    23    24    1
    45    23    46    1
    46    23    47    1
    47    24    25    1
    48    24    48    1
    49    24    49    1
    50    25    50    1
    51    25    51    1
    52    26    27    2
    53    26    52    1
    54    27    53    1
    55    28    29    1
    56    28    30   ar
    57    29    54    1
    58    29    55    1
    59    29    56    1
    60    30    57    1
@<TRIPOS>SUBSTRUCTURE
     1 ZINC000470948647        1 TEMP              0 ****  ****    0 ROOT


##########                                Name:    ZINC000474368324
##########                DOCK_Rotatable_Bonds:                   9
##########                         Heavy_Atoms:                  27
##########                    Molecular_Weight:             417.332
##########                DOCK_Rotatable_Bonds:                   9
##########                       Formal_Charge:        -1.63913e-07
##########                     HBond_Acceptors:                   8
##########                        HBond_Donors:                   1
##########                         Heavy_Atoms:                  27
##########                          Grid_Score:          -31.912655
##########                     Grid_vdw_energy:          -32.299503
##########                      Grid_es_energy:            0.386849
##########           Internal_energy_repulsive:           24.221127

@<TRIPOS>MOLECULE
ZINC000474368324
 53 54 1 0 0
SMALL
USER_CHARGES


@<TRIPOS>ATOM
      1 C1         -8.7148    0.5976   63.8443 C.3     1  ZINC000474368324   -0.1500
      2 C2         -9.1199   -0.7209   63.1821 C.3     1  ZINC000474368324    0.0600
      3 O3         -8.9476   -0.6134   61.7443 O.3     1  ZINC000474368324   -0.3300
      4 C4         -9.5167   -1.5663   60.9895 C.2     1  ZINC000474368324    0.4700
      5 O5         -9.3415   -2.7320   61.2547 O.2     1  ZINC000474368324   -0.5100
      6 C6        -10.3743   -1.1821   59.8113 C.3     1  ZINC000474368324   -0.0400
      7 C7        -11.7110   -1.9223   59.8909 C.3     1  ZINC000474368324    0.0600
      8 O8        -12.2316   -1.8241   61.2180 O.3     1  ZINC000474368324   -0.3700
      9 C9        -13.5786   -1.3510   61.2805 C.3     1  ZINC000474368324    0.0300
     10 C10       -10.6256    0.3274   59.8342 C.3     1  ZINC000474368324   -0.1200
     11 C11       -11.5259    0.7091   58.6550 C.3     1  ZINC000474368324    0.1100
     12 N12       -10.9126    0.2183   57.4135 N.am    1  ZINC000474368324   -0.6300
     13 C13       -10.6891    1.0546   56.3806 C.2     1  ZINC000474368324    0.7100
     14 O14       -10.9956    2.2278   56.4708 O.2     1  ZINC000474368324   -0.5800
     15 N15       -10.1256    0.5907   55.2475 N.am    1  ZINC000474368324   -0.7400
     16 C16        -9.8826    1.4998   54.1247 C.3     1  ZINC000474368324    0.2000
     17 H17        -9.4717    2.4374   54.4988 H       1  ZINC000474368324    0.1100
     18 C18       -11.2000    1.7747   53.3969 C.3     1  ZINC000474368324   -0.1600
     19 C19        -8.9033    0.8677   53.1694 C.ar    1  ZINC000474368324   -0.0700
     20 C20        -9.0815   -0.4410   52.7627 C.ar    1  ZINC000474368324   -0.1000
     21 C21        -8.1838   -1.0216   51.8858 C.ar    1  ZINC000474368324   -0.0900
     22 C22        -7.1073   -0.2938   51.4152 C.ar    1  ZINC000474368324   -0.1000
     23 C23        -6.9274    1.0164   51.8213 C.ar    1  ZINC000474368324   -0.0300
     24 Cl24       -5.5754    1.9310   51.2305 Cl      1  ZINC000474368324   -0.0400
     25 C25        -7.8293    1.5993   52.6952 C.ar    1  ZINC000474368324   -0.0300
     26 Cl26       -7.6053    3.2435   53.2054 Cl      1  ZINC000474368324   -0.0400
     27 C27       -10.5470   -1.2018   57.3195 C.3     1  ZINC000474368324    0.1300
     28 C28        -9.6576   -1.5621   58.5136 C.3     1  ZINC000474368324   -0.1200
     29 H29        -8.8442    0.5169   64.9236 H       1  ZINC000474368324    0.0800
     30 H30        -7.6702    0.8117   63.6186 H       1  ZINC000474368324    0.0700
     31 H31        -9.3416    1.4035   63.4625 H       1  ZINC000474368324    0.0700
     32 H32        -8.4931   -1.5268   63.5639 H       1  ZINC000474368324    0.0700
     33 H33       -10.1645   -0.9349   63.4078 H       1  ZINC000474368324    0.0700
     34 H34       -12.4161   -1.4754   59.1900 H       1  ZINC000474368324    0.0700
     35 H35       -11.5611   -2.9715   59.6362 H       1  ZINC000474368324    0.0600
     36 H36       -13.6352   -0.3563   60.8384 H       1  ZINC000474368324    0.0400
     37 H37       -14.2284   -2.0309   60.7296 H       1  ZINC000474368324    0.0400
     38 H38       -13.8996   -1.3049   62.3211 H       1  ZINC000474368324    0.0900
     39 H39       -11.1151    0.6006   60.7690 H       1  ZINC000474368324    0.1000
     40 H40        -9.6756    0.8556   59.7525 H       1  ZINC000474368324    0.0800
     41 H41       -12.5079    0.2533   58.7825 H       1  ZINC000474368324    0.0800
     42 H42       -11.6273    1.7934   58.6087 H       1  ZINC000474368324    0.0800
     43 H43        -9.8810   -0.3452   55.1756 H       1  ZINC000474368324    0.3900
     44 H44       -11.6111    0.8370   53.0228 H       1  ZINC000474368324    0.0600
     45 H45       -11.9084    2.2319   54.0878 H       1  ZINC000474368324    0.0700
     46 H46       -11.0193    2.4511   52.5614 H       1  ZINC000474368324    0.0700
     47 H47        -9.9223   -1.0107   53.1301 H       1  ZINC000474368324    0.1300
     48 H48        -8.3238   -2.0445   51.5688 H       1  ZINC000474368324    0.1400
     49 H49        -6.4063   -0.7480   50.7306 H       1  ZINC000474368324    0.1500
     50 H50       -11.4491   -1.8133   57.3380 H       1  ZINC000474368324    0.0700
     51 H51       -10.0024   -1.3783   56.3919 H       1  ZINC000474368324    0.1100
     52 H52        -8.7168   -1.0160   58.4443 H       1  ZINC000474368324    0.0900
     53 H53        -9.4581   -2.6336   58.5084 H       1  ZINC000474368324    0.0900
@<TRIPOS>BOND
     1     1     2    1
     2     1    29    1
     3     1    30    1
     4     1    31    1
     5     2     3    1
     6     2    32    1
     7     2    33    1
     8     3     4    1
     9     4     5    2
    10     4     6    1
    11     6    28    1
    12     6     7    1
    13     6    10    1
    14     7     8    1
    15     7    34    1
    16     7    35    1
    17     8     9    1
    18     9    36    1
    19     9    37    1
    20     9    38    1
    21    10    11    1
    22    10    39    1
    23    10    40    1
    24    11    12    1
    25    11    41    1
    26    11    42    1
    27    12    13   am
    28    12    27    1
    29    13    14    2
    30    13    15   am
    31    15    16    1
    32    15    43    1
    33    16    17    1
    34    16    18    1
    35    16    19    1
    36    18    44    1
    37    18    45    1
    38    18    46    1
    39    19    25   ar
    40    19    20   ar
    41    20    21   ar
    42    20    47    1
    43    21    22   ar
    44    21    48    1
    45    22    23   ar
    46    22    49    1
    47    23    24    1
    48    23    25   ar
    49    25    26    1
    50    27    28    1
    51    27    50    1
    52    27    51    1
    53    28    52    1
    54    28    53    1
@<TRIPOS>SUBSTRUCTURE
     1 ZINC000474368324        1 TEMP              0 ****  ****    0 ROOT


##########                                Name:    ZINC000864477301
##########                DOCK_Rotatable_Bonds:                   6
##########                         Heavy_Atoms:                  26
##########                    Molecular_Weight:             393.891
##########                DOCK_Rotatable_Bonds:                   6
##########                       Formal_Charge:         -0.00999978
##########                     HBond_Acceptors:                   7
##########                        HBond_Donors:                   1
##########                         Heavy_Atoms:                  26
##########                          Grid_Score:          -31.882309
##########                     Grid_vdw_energy:          -31.955921
##########                      Grid_es_energy:            0.073612
##########           Internal_energy_repulsive:            8.345199

@<TRIPOS>MOLECULE
ZINC000864477301
 46 47 1 0 0
SMALL
USER_CHARGES


@<TRIPOS>ATOM
      1 C1          1.5653    3.7051   40.3117 C.3     1  ZINC000864477301   -0.1500
      2 C2          1.6173    3.2975   41.7854 C.3     1  ZINC000864477301    0.0600
      3 O3          2.2097    1.9770   41.9017 O.3     1  ZINC000864477301   -0.3500
      4 C4          1.9908    1.3073   43.0498 C.2     1  ZINC000864477301    0.5100
      5 O5          2.9193    1.0508   43.7898 O.2     1  ZINC000864477301   -0.5000
      6 C6          0.6217    0.8847   43.4090 C.ar    1  ZINC000864477301   -0.1400
      7 C7          0.0407   -0.2183   42.7805 C.ar    1  ZINC000864477301   -0.0300
      8 C8         -1.2385   -0.6075   43.1207 C.ar    1  ZINC000864477301   -0.1500
      9 C9         -1.9454    0.0927   44.0819 C.ar    1  ZINC000864477301   -0.0100
     10 C10        -1.3755    1.1870   44.7088 C.ar    1  ZINC000864477301   -0.4900
     11 S11        -2.2849    2.0716   45.9316 S.o     1  ZINC000864477301    1.3800
     12 O12        -1.6797    3.3571   45.9123 O.2     1  ZINC000864477301   -0.8100
     13 C13        -1.8403    1.2169   47.4686 C.3     1  ZINC000864477301   -0.4600
     14 H14        -2.2158    0.1942   47.4372 H       1  ZINC000864477301    0.1400
     15 C15        -0.3179    1.1970   47.6189 C.3     1  ZINC000864477301   -0.1400
     16 C16        -2.4513    1.9406   48.6407 C.2     1  ZINC000864477301    0.5500
     17 O17        -2.6759    3.1304   48.5686 O.2     1  ZINC000864477301   -0.5100
     18 N18        -2.7482    1.2660   49.7689 N.am    1  ZINC000864477301   -0.6800
     19 C19        -3.3158    1.9383   50.8577 C.ar    1  ZINC000864477301    0.1400
     20 C20        -2.5372    2.7842   51.6355 C.ar    1  ZINC000864477301   -0.0600
     21 C21        -1.0792    2.9800   51.3090 C.3     1  ZINC000864477301   -0.1100
     22 C22        -3.1003    3.4468   52.7092 C.ar    1  ZINC000864477301   -0.1100
     23 C23        -4.4379    3.2686   53.0097 C.ar    1  ZINC000864477301   -0.1000
     24 C24        -5.2171    2.4262   52.2374 C.ar    1  ZINC000864477301   -0.1100
     25 C25        -4.6617    1.7649   51.1587 C.ar    1  ZINC000864477301   -0.0200
     26 Cl26       -5.6401    0.7083   50.1893 Cl      1  ZINC000864477301   -0.0600
     27 C27        -0.0953    1.5832   44.3828 C.ar    1  ZINC000864477301    0.0100
     28 H28         2.5759    3.7231   39.9037 H       1  ZINC000864477301    0.0700
     29 H29         0.9622    2.9863   39.7569 H       1  ZINC000864477301    0.0700
     30 H30         1.1206    4.6964   40.2243 H       1  ZINC000864477301    0.0800
     31 H31         2.2202    4.0163   42.3401 H       1  ZINC000864477301    0.0700
     32 H32         0.6067    3.2795   42.1933 H       1  ZINC000864477301    0.0700
     33 H33         0.5912   -0.7654   42.0295 H       1  ZINC000864477301    0.1400
     34 H34        -1.6891   -1.4606   42.6353 H       1  ZINC000864477301    0.1400
     35 H35        -2.9466   -0.2158   44.3439 H       1  ZINC000864477301    0.1500
     36 H36        -0.0507    0.6833   48.5425 H       1  ZINC000864477301    0.0700
     37 H37         0.1242    0.6734   46.7712 H       1  ZINC000864477301    0.0700
     38 H38         0.0577    2.2197   47.6503 H       1  ZINC000864477301    0.0700
     39 H39        -2.5685    0.3145   49.8266 H       1  ZINC000864477301    0.4100
     40 H40        -0.9707    3.8151   50.6169 H       1  ZINC000864477301    0.0800
     41 H41        -0.5271    3.1928   52.2244 H       1  ZINC000864477301    0.0700
     42 H42        -0.6848    2.0737   50.8494 H       1  ZINC000864477301    0.0700
     43 H43        -2.4947    4.1047   53.3148 H       1  ZINC000864477301    0.1400
     44 H44        -4.8753    3.7878   53.8495 H       1  ZINC000864477301    0.1400
     45 H45        -6.2617    2.2888   52.4750 H       1  ZINC000864477301    0.1400
     46 H46         0.3484    2.4371   44.8731 H       1  ZINC000864477301    0.1400
@<TRIPOS>BOND
     1     1     2    1
     2     1    28    1
     3     1    29    1
     4     1    30    1
     5     2     3    1
     6     2    31    1
     7     2    32    1
     8     3     4    1
     9     4     5    2
    10     4     6    1
    11     6    27   ar
    12     6     7   ar
    13     7     8   ar
    14     7    33    1
    15     8     9   ar
    16     8    34    1
    17     9    10   ar
    18     9    35    1
    19    10    11    1
    20    10    27   ar
    21    11    12    2
    22    11    13    1
    23    13    14    1
    24    13    15    1
    25    13    16    1
    26    15    36    1
    27    15    37    1
    28    15    38    1
    29    16    17    2
    30    16    18   am
    31    18    19    1
    32    18    39    1
    33    19    25   ar
    34    19    20   ar
    35    20    21    1
    36    20    22   ar
    37    21    40    1
    38    21    41    1
    39    21    42    1
    40    22    23   ar
    41    22    43    1
    42    23    24   ar
    43    23    44    1
    44    24    25   ar
    45    24    45    1
    46    25    26    1
    47    27    46    1
@<TRIPOS>SUBSTRUCTURE
     1 ZINC000864477301        1 TEMP              0 ****  ****    0 ROOT


##########                                Name:    ZINC000546115054
##########                DOCK_Rotatable_Bonds:                  10
##########                         Heavy_Atoms:                  26
##########                    Molecular_Weight:             363.457
##########                DOCK_Rotatable_Bonds:                  10
##########                       Formal_Charge:        -4.39584e-07
##########                     HBond_Acceptors:                   7
##########                        HBond_Donors:                   2
##########                         Heavy_Atoms:                  26
##########                          Grid_Score:          -31.867050
##########                     Grid_vdw_energy:          -30.376873
##########                      Grid_es_energy:           -1.490177
##########           Internal_energy_repulsive:           20.219019

@<TRIPOS>MOLECULE
ZINC000546115054
 55 56 1 0 0
SMALL
USER_CHARGES


@<TRIPOS>ATOM
      1 C1        -10.7433   -2.7212   52.6289 C.3     1  ZINC000546115054   -0.1500
      2 C2        -10.0536   -1.4279   52.1895 C.3     1  ZINC000546115054    0.0600
      3 O3         -9.3788   -0.8449   53.3062 O.3     1  ZINC000546115054   -0.3700
      4 C4         -9.2915    0.5804   53.2531 C.3     1  ZINC000546115054    0.0500
      5 H5        -10.2347    0.9898   52.8911 H       1  ZINC000546115054    0.0700
      6 C6         -8.1598    0.9888   52.3064 C.3     1  ZINC000546115054    0.0400
      7 O7         -8.0367    2.4125   52.2995 O.3     1  ZINC000546115054   -0.3700
      8 C8         -7.7158    2.9766   53.5727 C.3     1  ZINC000546115054    0.0600
      9 C9         -8.8297    2.6480   54.5702 C.3     1  ZINC000546115054   -0.1600
     10 C10        -8.9996    1.1279   54.6535 C.3     1  ZINC000546115054    0.1700
     11 H11        -8.0827    0.6788   55.0352 H       1  ZINC000546115054    0.1000
     12 N12       -10.1126    0.8077   55.5507 N.am    1  ZINC000546115054   -0.7300
     13 C13        -9.8664    0.4150   56.8163 C.2     1  ZINC000546115054    0.7200
     14 O14        -8.7206    0.3252   57.2129 O.2     1  ZINC000546115054   -0.5900
     15 N15       -10.8904    0.1220   57.6422 N.am    1  ZINC000546115054   -0.7200
     16 C16       -10.6227   -0.3066   59.0174 C.3     1  ZINC000546115054    0.1600
     17 H17        -9.8148    0.2946   59.4345 H       1  ZINC000546115054    0.1200
     18 C18       -11.8842   -0.1230   59.8635 C.3     1  ZINC000546115054   -0.1000
     19 C19       -13.0222   -0.8905   59.2416 C.ar    1  ZINC000546115054   -0.0800
     20 C20       -13.3076   -2.1730   59.6717 C.ar    1  ZINC000546115054   -0.1100
     21 C21       -14.3515   -2.8769   59.1012 C.ar    1  ZINC000546115054   -0.1200
     22 C22       -15.1102   -2.2986   58.1009 C.ar    1  ZINC000546115054   -0.1200
     23 C23       -14.8255   -1.0159   57.6715 C.ar    1  ZINC000546115054   -0.1200
     24 C24       -13.7844   -0.3101   58.2449 C.ar    1  ZINC000546115054   -0.1100
     25 C25       -10.2218   -1.7593   59.0218 C.2     1  ZINC000546115054    0.5000
     26 O26       -10.4710   -2.4600   58.0638 O.2     1  ZINC000546115054   -0.5200
     27 N27        -9.5863   -2.2797   60.0904 N.am    1  ZINC000546115054   -0.6200
     28 C28        -9.1982   -3.6923   60.0954 C.3     1  ZINC000546115054    0.0800
     29 C29        -9.2838   -1.4328   61.2468 C.3     1  ZINC000546115054    0.0700
     30 H30       -11.2581   -3.1658   51.7773 H       1  ZINC000546115054    0.0700
     31 H31        -9.9976   -3.4198   53.0081 H       1  ZINC000546115054    0.0600
     32 H32       -11.4656   -2.4989   53.4145 H       1  ZINC000546115054    0.0600
     33 H33        -9.3314   -1.6501   51.4040 H       1  ZINC000546115054    0.0500
     34 H34       -10.7994   -0.7292   51.8104 H       1  ZINC000546115054    0.0500
     35 H35        -7.2240    0.5447   52.6457 H       1  ZINC000546115054    0.0600
     36 H36        -8.3843    0.6385   51.2989 H       1  ZINC000546115054    0.1000
     37 H37        -6.7741    2.5584   53.9286 H       1  ZINC000546115054    0.0600
     38 H38        -7.6204    4.0581   53.4775 H       1  ZINC000546115054    0.1000
     39 H39        -8.5659    3.0395   55.5526 H       1  ZINC000546115054    0.0900
     40 H40        -9.7633    3.1002   54.2355 H       1  ZINC000546115054    0.0800
     41 H41       -11.0267    0.8781   55.2339 H       1  ZINC000546115054    0.3900
     42 H42       -11.8045    0.1948   57.3262 H       1  ZINC000546115054    0.4000
     43 H43       -11.7028   -0.4954   60.8716 H       1  ZINC000546115054    0.0900
     44 H44       -12.1410    0.9353   59.9077 H       1  ZINC000546115054    0.1100
     45 H45       -12.7147   -2.6248   60.4531 H       1  ZINC000546115054    0.1200
     46 H46       -14.5740   -3.8791   59.4367 H       1  ZINC000546115054    0.1200
     47 H47       -15.9254   -2.8489   57.6547 H       1  ZINC000546115054    0.1200
     48 H48       -15.4181   -0.5641   56.8898 H       1  ZINC000546115054    0.1200
     49 H49       -13.5618    0.6921   57.9094 H       1  ZINC000546115054    0.1200
     50 H50        -8.1963   -3.7953   59.6786 H       1  ZINC000546115054    0.0600
     51 H51        -9.2065   -4.0677   61.1187 H       1  ZINC000546115054    0.0700
     52 H52        -9.9032   -4.2649   59.4927 H       1  ZINC000546115054    0.0800
     53 H53       -10.1143   -1.4700   61.9517 H       1  ZINC000546115054    0.0600
     54 H54        -8.3775   -1.7929   61.7337 H       1  ZINC000546115054    0.0800
     55 H55        -9.1343   -0.4052   60.9155 H       1  ZINC000546115054    0.0700
@<TRIPOS>BOND
     1     1     2    1
     2     1    30    1
     3     1    31    1
     4     1    32    1
     5     2     3    1
     6     2    33    1
     7     2    34    1
     8     3     4    1
     9     4     5    1
    10     4    10    1
    11     4     6    1
    12     6     7    1
    13     6    35    1
    14     6    36    1
    15     7     8    1
    16     8     9    1
    17     8    37    1
    18     8    38    1
    19     9    10    1
    20     9    39    1
    21     9    40    1
    22    10    11    1
    23    10    12    1
    24    12    13   am
    25    12    41    1
    26    13    14    2
    27    13    15   am
    28    15    16    1
    29    15    42    1
    30    16    17    1
    31    16    18    1
    32    16    25    1
    33    18    19    1
    34    18    43    1
    35    18    44    1
    36    19    24   ar
    37    19    20   ar
    38    20    21   ar
    39    20    45    1
    40    21    22   ar
    41    21    46    1
    42    22    23   ar
    43    22    47    1
    44    23    24   ar
    45    23    48    1
    46    24    49    1
    47    25    26    2
    48    25    27   am
    49    27    28    1
    50    27    29    1
    51    28    50    1
    52    28    51    1
    53    28    52    1
    54    29    53    1
    55    29    54    1
    56    29    55    1
@<TRIPOS>SUBSTRUCTURE
     1 ZINC000546115054        1 TEMP              0 ****  ****    0 ROOT


##########                                Name:    ZINC001162683355
##########                DOCK_Rotatable_Bonds:                   5
##########                         Heavy_Atoms:                  25
##########                    Molecular_Weight:             336.437
##########                DOCK_Rotatable_Bonds:                   5
##########                       Formal_Charge:          -0.0100002
##########                     HBond_Acceptors:                   5
##########                        HBond_Donors:                   1
##########                         Heavy_Atoms:                  25
##########                          Grid_Score:          -31.855173
##########                     Grid_vdw_energy:          -32.257633
##########                      Grid_es_energy:            0.402460
##########           Internal_energy_repulsive:            7.098794

@<TRIPOS>MOLECULE
ZINC001162683355
 49 52 1 0 0
SMALL
USER_CHARGES


@<TRIPOS>ATOM
      1 C1         -9.6348    0.1370   52.7276 C.3     1  ZINC001162683355    0.0200
      2 N2         -8.5239    0.3392   51.7879 N.3     1  ZINC001162683355   -0.5400
      3 C3         -7.8109   -0.9216   51.5359 C.3     1  ZINC001162683355    0.0100
      4 C4         -6.7021   -0.6780   50.5087 C.3     1  ZINC001162683355    0.0600
      5 O5         -5.8314    0.3498   50.9892 O.3     1  ZINC001162683355   -0.3800
      6 C6         -6.4928    1.5918   51.2446 C.3     1  ZINC001162683355    0.0800
      7 H7         -6.9286    1.9691   50.3194 H       1  ZINC001162683355    0.0700
      8 C8         -5.4832    2.6066   51.7847 C.3     1  ZINC001162683355    0.1500
      9 N9         -4.2738    2.5796   50.9584 N.pl3   1  ZINC001162683355   -0.7300
     10 C10        -3.0390    2.8792   51.5232 C.ar    1  ZINC001162683355    0.4300
     11 C11        -1.8659    2.6298   50.8071 C.ar    1  ZINC001162683355   -0.0100
     12 C12        -0.6336    2.9451   51.4082 C.ar    1  ZINC001162683355   -0.0400
     13 C13        -0.6347    3.4951   52.6971 C.ar    1  ZINC001162683355   -0.1800
     14 C14        -1.8291    3.7047   53.3227 C.ar    1  ZINC001162683355    0.1000
     15 N15        -2.9774    3.4001   52.7375 N.ar    1  ZINC001162683355   -0.5400
     16 C16         0.3956    2.5814   50.4390 C.2     1  ZINC001162683355   -0.2200
     17 C17        -0.2379    2.0856   49.3611 C.2     1  ZINC001162683355    0.0800
     18 N18        -1.5886    2.1124   49.5623 N.pl3   1  ZINC001162683355   -0.4600
     19 C19        -2.5923    1.6531   48.5990 C.3     1  ZINC001162683355    0.1500
     20 C20        -2.0373    1.7670   47.2025 C.ar    1  ZINC001162683355   -0.1100
     21 C21        -1.4639    0.6657   46.5949 C.ar    1  ZINC001162683355   -0.1000
     22 C22        -0.9588    0.7691   45.3122 C.ar    1  ZINC001162683355   -0.1200
     23 C23        -1.0188    1.9759   44.6409 C.ar    1  ZINC001162683355   -0.1100
     24 C24        -1.5876    3.0785   45.2506 C.ar    1  ZINC001162683355   -0.1200
     25 C25        -2.0966    2.9740   46.5315 C.ar    1  ZINC001162683355   -0.1000
     26 C26        -7.5995    1.3713   52.2792 C.3     1  ZINC001162683355    0.0300
     27 H27        -9.2402   -0.1726   53.6954 H       1  ZINC001162683355    0.0300
     28 H28       -10.1880    1.0691   52.8423 H       1  ZINC001162683355    0.0700
     29 H29       -10.3004   -0.6355   52.3426 H       1  ZINC001162683355    0.0700
     30 H30        -8.5092   -1.6635   51.1488 H       1  ZINC001162683355    0.0900
     31 H31        -7.3724   -1.2838   52.4658 H       1  ZINC001162683355    0.0500
     32 H32        -7.1447   -0.3672   49.5623 H       1  ZINC001162683355    0.0600
     33 H33        -6.1341   -1.5965   50.3607 H       1  ZINC001162683355    0.1000
     34 H34        -5.2265    2.3517   52.8129 H       1  ZINC001162683355    0.0700
     35 H35        -5.9205    3.6047   51.7562 H       1  ZINC001162683355    0.0800
     36 H36        -4.3345    2.3528   50.0172 H       1  ZINC001162683355    0.4000
     37 H37         0.2938    3.7489   53.1869 H       1  ZINC001162683355    0.1300
     38 H38        -1.8382    4.1286   54.3160 H       1  ZINC001162683355    0.1500
     39 H39         1.4631    2.6862   50.5652 H       1  ZINC001162683355    0.1500
     40 H40         0.2490    1.7223   48.4682 H       1  ZINC001162683355    0.1700
     41 H41        -3.4875    2.2689   48.6856 H       1  ZINC001162683355    0.0900
     42 H42        -2.8452    0.6132   48.8059 H       1  ZINC001162683355    0.0900
     43 H43        -1.4135   -0.2762   47.1208 H       1  ZINC001162683355    0.1200
     44 H44        -0.5147   -0.0924   44.8357 H       1  ZINC001162683355    0.1300
     45 H45        -0.6219    2.0573   43.6398 H       1  ZINC001162683355    0.1300
     46 H46        -1.6345    4.0213   44.7260 H       1  ZINC001162683355    0.1300
     47 H47        -2.5409    3.8355   47.0079 H       1  ZINC001162683355    0.1200
     48 H48        -7.1576    1.0457   53.2210 H       1  ZINC001162683355    0.0500
     49 H49        -8.1434    2.3030   52.4346 H       1  ZINC001162683355    0.0900
@<TRIPOS>BOND
     1     1     2    1
     2     1    27    1
     3     1    28    1
     4     1    29    1
     5     2    26    1
     6     2     3    1
     7     3     4    1
     8     3    30    1
     9     3    31    1
    10     4     5    1
    11     4    32    1
    12     4    33    1
    13     5     6    1
    14     6     7    1
    15     6     8    1
    16     6    26    1
    17     8     9    1
    18     8    34    1
    19     8    35    1
    20     9    10    1
    21     9    36    1
    22    10    15   ar
    23    10    11   ar
    24    11    18    1
    25    11    12   ar
    26    12    13   ar
    27    12    16    1
    28    13    14   ar
    29    13    37    1
    30    14    15   ar
    31    14    38    1
    32    16    17    2
    33    16    39    1
    34    17    18    1
    35    17    40    1
    36    18    19    1
    37    19    20    1
    38    19    41    1
    39    19    42    1
    40    20    25   ar
    41    20    21   ar
    42    21    22   ar
    43    21    43    1
    44    22    23   ar
    45    22    44    1
    46    23    24   ar
    47    23    45    1
    48    24    25   ar
    49    24    46    1
    50    25    47    1
    51    26    48    1
    52    26    49    1
@<TRIPOS>SUBSTRUCTURE
     1 ZINC001162683355        1 TEMP              0 ****  ****    0 ROOT


##########                                Name:    ZINC000543020509
##########                DOCK_Rotatable_Bonds:                   5
##########                         Heavy_Atoms:                  26
##########                    Molecular_Weight:              366.81
##########                DOCK_Rotatable_Bonds:                   5
##########                       Formal_Charge:               -0.02
##########                     HBond_Acceptors:                   8
##########                        HBond_Donors:                   1
##########                         Heavy_Atoms:                  26
##########                          Grid_Score:          -31.829470
##########                     Grid_vdw_energy:          -30.913174
##########                      Grid_es_energy:           -0.916296
##########           Internal_energy_repulsive:           13.148245

@<TRIPOS>MOLECULE
ZINC000543020509
 41 43 1 0 0
SMALL
USER_CHARGES


@<TRIPOS>ATOM
      1 C1        -13.4213   -0.3181   50.9260 C.3     1  ZINC000543020509    0.0800
      2 N2        -12.3050   -0.1477   51.8594 N.pl3   1  ZINC000543020509   -0.6200
      3 C3        -11.6410    1.1528   51.9774 C.3     1  ZINC000543020509    0.0900
      4 C4        -11.8756   -1.2212   52.6343 C.ar    1  ZINC000543020509    0.2500
      5 C5        -11.6710   -2.4767   52.0645 C.ar    1  ZINC000543020509   -0.2200
      6 C6        -11.2436   -3.5205   52.8643 C.ar    1  ZINC000543020509    0.1400
      7 N7        -11.0284   -3.3444   54.1509 N.ar    1  ZINC000543020509   -0.5000
      8 C8        -11.2101   -2.1658   54.7368 C.ar    1  ZINC000543020509    0.1100
      9 C9        -10.9532   -2.0207   56.1885 C.2     1  ZINC000543020509    0.5900
     10 O10       -10.9847   -0.9206   56.7042 O.2     1  ZINC000543020509   -0.5000
     11 N11       -10.6845   -3.1085   56.9374 N.am    1  ZINC000543020509   -0.6200
     12 C12       -10.4434   -2.9716   58.3092 C.2     1  ZINC000543020509    0.3200
     13 N13       -10.6464   -1.8883   59.0219 N.2     1  ZINC000543020509   -0.3100
     14 N14       -10.2830   -2.1614   60.3470 N.pl3   1  ZINC000543020509   -0.3300
     15 C15       -10.3506   -1.2678   61.4187 C.ar    1  ZINC000543020509    0.2200
     16 C16        -9.1864   -0.8046   62.0138 C.ar    1  ZINC000543020509   -0.1300
     17 C17        -9.2545    0.0791   63.0733 C.ar    1  ZINC000543020509   -0.0500
     18 C18       -10.4827    0.5092   63.5496 C.ar    1  ZINC000543020509   -0.0600
     19 Cl19      -10.5521    1.6199   64.8820 Cl      1  ZINC000543020509   -0.0500
     20 C20       -11.6509    0.0587   62.9690 C.ar    1  ZINC000543020509   -0.0400
     21 C21       -11.5960   -0.8305   61.8939 C.ar    1  ZINC000543020509   -0.0200
     22 C22       -12.8043   -1.3018   61.2869 C.1     1  ZINC000543020509    0.2500
     23 N23       -13.7628   -1.6757   60.8052 N.1     1  ZINC000543020509   -0.3800
     24 C24        -9.8536   -3.4492   60.4058 C.2     1  ZINC000543020509    0.0700
     25 C25        -9.9479   -3.9721   59.1626 C.2     1  ZINC000543020509   -0.2400
     26 C26       -11.6336   -1.0662   53.9992 C.ar    1  ZINC000543020509   -0.1800
     27 H27       -13.0381   -0.6305   49.9545 H       1  ZINC000543020509    0.0600
     28 H28       -14.1025   -1.0779   51.3092 H       1  ZINC000543020509    0.0700
     29 H29       -13.9537    0.6270   50.8198 H       1  ZINC000543020509    0.0700
     30 H30       -12.1114    1.8640   51.2983 H       1  ZINC000543020509    0.0800
     31 H31       -11.7303    1.5149   53.0015 H       1  ZINC000543020509    0.0600
     32 H32       -10.5871    1.0473   51.7199 H       1  ZINC000543020509    0.0600
     33 H33       -11.8447   -2.6327   51.0101 H       1  ZINC000543020509    0.1400
     34 H34       -11.0842   -4.4949   52.4269 H       1  ZINC000543020509    0.1700
     35 H35       -10.6582   -3.9863   56.5256 H       1  ZINC000543020509    0.4300
     36 H36        -8.2255   -1.1354   61.6484 H       1  ZINC000543020509    0.1500
     37 H37        -8.3452    0.4365   63.5334 H       1  ZINC000543020509    0.1500
     38 H38       -12.6060    0.3965   63.3433 H       1  ZINC000543020509    0.1500
     39 H39        -9.5037   -3.9641   61.2883 H       1  ZINC000543020509    0.1900
     40 H40        -9.6830   -4.9787   58.8750 H       1  ZINC000543020509    0.1800
     41 H41       -11.7804   -0.1087   54.4769 H       1  ZINC000543020509    0.1500
@<TRIPOS>BOND
     1     1     2    1
     2     1    27    1
     3     1    28    1
     4     1    29    1
     5     2     3    1
     6     2     4    1
     7     3    30    1
     8     3    31    1
     9     3    32    1
    10     4    26   ar
    11     4     5   ar
    12     5     6   ar
    13     5    33    1
    14     6     7   ar
    15     6    34    1
    16     7     8   ar
    17     8     9    1
    18     8    26   ar
    19     9    10    2
    20     9    11   am
    21    11    12    1
    22    11    35    1
    23    12    25    1
    24    12    13    2
    25    13    14    1
    26    14    15    1
    27    14    24    1
    28    15    21   ar
    29    15    16   ar
    30    16    17   ar
    31    16    36    1
    32    17    18   ar
    33    17    37    1
    34    18    19    1
    35    18    20   ar
    36    20    21   ar
    37    20    38    1
    38    21    22    1
    39    22    23    3
    40    24    25    2
    41    24    39    1
    42    25    40    1
    43    26    41    1
@<TRIPOS>SUBSTRUCTURE
     1 ZINC000543020509        1 TEMP              0 ****  ****    0 ROOT


##########                                Name:    ZINC001045463759
##########                DOCK_Rotatable_Bonds:                   6
##########                         Heavy_Atoms:                  24
##########                    Molecular_Weight:             336.385
##########                DOCK_Rotatable_Bonds:                   6
##########                       Formal_Charge:          1.3411e-07
##########                     HBond_Acceptors:                   7
##########                        HBond_Donors:                   2
##########                         Heavy_Atoms:                  24
##########                          Grid_Score:          -31.808828
##########                     Grid_vdw_energy:          -31.578411
##########                      Grid_es_energy:           -0.230417
##########           Internal_energy_repulsive:           10.137643

@<TRIPOS>MOLECULE
ZINC001045463759
 46 49 1 0 0
SMALL
USER_CHARGES


@<TRIPOS>ATOM
      1 O1        -10.5705   -3.8726   52.9584 O.2     1  ZINC001045463759   -0.5100
      2 C2        -10.8409   -2.7510   53.3324 C.2     1  ZINC001045463759    0.5400
      3 N3        -11.7540   -2.5674   54.3066 N.am    1  ZINC001045463759   -0.7200
      4 C4        -12.4244   -3.7221   54.9094 C.3     1  ZINC001045463759    0.1400
      5 H5        -12.0311   -4.6397   54.4719 H       1  ZINC001045463759    0.1000
      6 C6        -13.9286   -3.6344   54.6438 C.3     1  ZINC001045463759   -0.1300
      7 C7        -14.6288   -4.8404   55.2733 C.3     1  ZINC001045463759   -0.1200
      8 C8        -14.3767   -4.8461   56.7824 C.3     1  ZINC001045463759   -0.1200
      9 C9        -12.8725   -4.9337   57.0479 C.3     1  ZINC001045463759   -0.1300
     10 C10       -12.1724   -3.7278   56.4184 C.3     1  ZINC001045463759    0.1500
     11 H11       -12.5657   -2.8102   56.8559 H       1  ZINC001045463759    0.0900
     12 N12       -10.7320   -3.8117   56.6727 N.pl3   1  ZINC001045463759   -0.7100
     13 C13       -10.1626   -3.0589   57.6867 C.ar    1  ZINC001045463759    0.4400
     14 C14        -9.6328   -3.6800   58.8194 C.ar    1  ZINC001045463759   -0.3000
     15 C15        -9.0761   -2.8857   59.8026 C.ar    1  ZINC001045463759    0.1800
     16 N16        -9.0626   -1.5702   59.6406 N.ar    1  ZINC001045463759   -0.5600
     17 C17        -9.5710   -1.0141   58.5594 C.ar    1  ZINC001045463759    0.4000
     18 C18        -9.5326    0.4860   58.4200 C.3     1  ZINC001045463759   -0.1100
     19 C19       -10.8410    1.1964   58.0674 C.3     1  ZINC001045463759   -0.1500
     20 C20       -10.2639    1.3129   59.4795 C.3     1  ZINC001045463759   -0.1500
     21 N21       -10.1069   -1.7333   57.5943 N.ar    1  ZINC001045463759   -0.5700
     22 C22       -10.1512   -1.5632   52.7124 C.3     1  ZINC001045463759   -0.2000
     23 H23        -9.4455   -1.7932   51.9142 H       1  ZINC001045463759    0.1500
     24 C24       -10.9503   -0.2636   52.5962 C.3     1  ZINC001045463759   -0.1500
     25 C25        -9.8236   -0.3803   53.6259 C.3     1  ZINC001045463759    0.2300
     26 F26       -10.1877   -0.4840   54.9727 F       1  ZINC001045463759   -0.1400
     27 F27        -8.6416    0.3237   53.3725 F       1  ZINC001045463759   -0.1500
     28 H28       -11.9674   -1.6706   54.6085 H       1  ZINC001045463759    0.4000
     29 H29       -14.3219   -2.7169   55.0813 H       1  ZINC001045463759    0.0700
     30 H30       -14.1082   -3.6305   53.5687 H       1  ZINC001045463759    0.0800
     31 H31       -15.7005   -4.7781   55.0842 H       1  ZINC001045463759    0.0700
     32 H32       -14.2355   -5.7581   54.8358 H       1  ZINC001045463759    0.0700
     33 H33       -14.7700   -3.9285   57.2199 H       1  ZINC001045463759    0.0700
     34 H34       -14.8755   -5.7052   57.2309 H       1  ZINC001045463759    0.0700
     35 H35       -12.6929   -4.9378   58.1230 H       1  ZINC001045463759    0.0700
     36 H36       -12.4792   -5.8514   56.6105 H       1  ZINC001045463759    0.0700
     37 H37       -10.1771   -4.3944   56.1311 H       1  ZINC001045463759    0.4100
     38 H38        -9.6582   -4.7546   58.9244 H       1  ZINC001045463759    0.1400
     39 H39        -8.6571   -3.3309   60.6929 H       1  ZINC001045463759    0.1700
     40 H40        -8.6102    0.8966   58.0095 H       1  ZINC001045463759    0.1300
     41 H41       -10.7795    2.0745   57.4245 H       1  ZINC001045463759    0.1000
     42 H42       -11.7295    0.5786   57.9361 H       1  ZINC001045463759    0.1100
     43 H43       -10.7726    0.7719   60.2773 H       1  ZINC001045463759    0.1000
     44 H44        -9.8227    2.2676   59.7657 H       1  ZINC001045463759    0.1000
     45 H45       -10.7700    0.3615   51.7218 H       1  ZINC001045463759    0.1400
     46 H46       -11.9748   -0.2678   52.9683 H       1  ZINC001045463759    0.1300
@<TRIPOS>BOND
     1     1     2    2
     2     2     3   am
     3     2    22    1
     4     3     4    1
     5     3    28    1
     6     4     5    1
     7     4    10    1
     8     4     6    1
     9     6     7    1
    10     6    29    1
    11     6    30    1
    12     7     8    1
    13     7    31    1
    14     7    32    1
    15     8     9    1
    16     8    33    1
    17     8    34    1
    18     9    10    1
    19     9    35    1
    20     9    36    1
    21    10    11    1
    22    10    12    1
    23    12    13    1
    24    12    37    1
    25    13    21   ar
    26    13    14   ar
    27    14    15   ar
    28    14    38    1
    29    15    16   ar
    30    15    39    1
    31    16    17   ar
    32    17    18    1
    33    17    21   ar
    34    18    20    1
    35    18    19    1
    36    18    40    1
    37    19    20    1
    38    19    41    1
    39    19    42    1
    40    20    43    1
    41    20    44    1
    42    22    23    1
    43    22    25    1
    44    22    24    1
    45    24    25    1
    46    24    45    1
    47    24    46    1
    48    25    26    1
    49    25    27    1
@<TRIPOS>SUBSTRUCTURE
     1 ZINC001045463759        1 TEMP              0 ****  ****    0 ROOT


##########                                Name:    ZINC000451500596
##########                DOCK_Rotatable_Bonds:                   7
##########                         Heavy_Atoms:                  25
##########                    Molecular_Weight:             365.497
##########                DOCK_Rotatable_Bonds:                   7
##########                       Formal_Charge:           0.0400004
##########                     HBond_Acceptors:                   7
##########                        HBond_Donors:                   2
##########                         Heavy_Atoms:                  25
##########                          Grid_Score:          -31.777878
##########                     Grid_vdw_energy:          -30.652210
##########                      Grid_es_energy:           -1.125668
##########           Internal_energy_repulsive:           11.978522

@<TRIPOS>MOLECULE
ZINC000451500596
 52 54 1 0 0
SMALL
USER_CHARGES


@<TRIPOS>ATOM
      1 C1        -16.7568   -1.0467   47.7109 C.3     1  ZINC000451500596   -0.6700
      2 S2        -15.9407   -2.6213   48.0917 S.o2    1  ZINC000451500596    2.6100
      3 O3        -16.9039   -3.6236   48.3868 O.2     1  ZINC000451500596   -0.9500
      4 O4        -14.8828   -2.8689   47.1758 O.2     1  ZINC000451500596   -0.9600
      5 N5        -15.1761   -2.3519   49.5356 N.am    1  ZINC000451500596   -1.1200
      6 C6        -15.9547   -1.9726   50.7172 C.3     1  ZINC000451500596    0.1200
      7 C7        -15.0977   -1.0964   51.6331 C.3     1  ZINC000451500596   -0.1000
      8 H8        -15.6605   -0.8291   52.5274 H       1  ZINC000451500596    0.0900
      9 C9        -14.6582    0.1789   50.8846 C.3     1  ZINC000451500596   -0.1200
     10 C10       -13.2153    0.4354   51.3860 C.3     1  ZINC000451500596   -0.1300
     11 C11       -12.6328   -0.9955   51.4978 C.3     1  ZINC000451500596   -0.1300
     12 C12       -13.8106   -1.8436   52.0240 C.3     1  ZINC000451500596    0.1400
     13 H13       -13.7964   -2.8302   51.5609 H       1  ZINC000451500596    0.1000
     14 N14       -13.7249   -1.9720   53.4809 N.am    1  ZINC000451500596   -0.7200
     15 C15       -13.0502   -3.0025   54.0279 C.2     1  ZINC000451500596    0.5300
     16 O16       -12.5152   -3.8244   53.3142 O.2     1  ZINC000451500596   -0.5300
     17 C17       -12.9605   -3.1338   55.5265 C.3     1  ZINC000451500596   -0.1300
     18 H18       -13.4671   -2.3020   56.0159 H       1  ZINC000451500596    0.1000
     19 C19       -13.5532   -4.4889   55.9949 C.3     1  ZINC000451500596   -0.1200
     20 C20       -12.7910   -4.7214   57.3232 C.3     1  ZINC000451500596    0.0500
     21 N21       -11.4255   -4.2151   57.0686 N.3     1  ZINC000451500596   -0.4900
     22 C22       -10.8755   -3.6554   58.2241 C.ar    1  ZINC000451500596    0.0800
     23 C23       -11.4502   -2.5253   58.7917 C.ar    1  ZINC000451500596   -0.0900
     24 C24       -10.9041   -1.9747   59.9344 C.ar    1  ZINC000451500596   -0.1100
     25 C25        -9.7861   -2.5467   60.5134 C.ar    1  ZINC000451500596   -0.1200
     26 C26        -9.2114   -3.6718   59.9508 C.ar    1  ZINC000451500596   -0.1100
     27 C27        -9.7558   -4.2309   58.8114 C.ar    1  ZINC000451500596   -0.1500
     28 C28       -11.4878   -3.2186   55.9797 C.3     1  ZINC000451500596    0.0600
     29 H29       -17.4619   -0.8015   48.5051 H       1  ZINC000451500596    0.1300
     30 H30       -16.0078   -0.2585   47.6339 H       1  ZINC000451500596    0.1300
     31 H31       -17.2912   -1.1338   46.7648 H       1  ZINC000451500596    0.1300
     32 H32       -14.2126   -2.4451   49.5991 H       1  ZINC000451500596    0.4200
     33 H33       -16.8393   -1.4168   50.4064 H       1  ZINC000451500596    0.0700
     34 H34       -16.2599   -2.8704   51.2547 H       1  ZINC000451500596    0.0900
     35 H35       -14.6634    0.0101   49.8077 H       1  ZINC000451500596    0.0800
     36 H36       -15.3065    1.0159   51.1437 H       1  ZINC000451500596    0.0700
     37 H37       -12.6538    1.0254   50.6616 H       1  ZINC000451500596    0.0700
     38 H38       -13.2261    0.9253   52.3596 H       1  ZINC000451500596    0.0700
     39 H39       -12.3111   -1.3539   50.5200 H       1  ZINC000451500596    0.0800
     40 H40       -11.8033   -1.0154   52.2045 H       1  ZINC000451500596    0.0700
     41 H41       -14.1537   -1.3155   54.0517 H       1  ZINC000451500596    0.4000
     42 H42       -14.6260   -4.4064   56.1696 H       1  ZINC000451500596    0.0800
     43 H43       -13.3358   -5.2793   55.2764 H       1  ZINC000451500596    0.0800
     44 H44       -13.2589   -4.1607   58.1324 H       1  ZINC000451500596    0.0600
     45 H45       -12.7629   -5.7842   57.5636 H       1  ZINC000451500596    0.0900
     46 H46       -12.3231   -2.0776   58.3397 H       1  ZINC000451500596    0.1300
     47 H47       -11.3505   -1.0961   60.3763 H       1  ZINC000451500596    0.1300
     48 H48        -9.3606   -2.1137   61.4065 H       1  ZINC000451500596    0.1200
     49 H49        -8.3383   -4.1160   60.4054 H       1  ZINC000451500596    0.1200
     50 H50        -9.3067   -5.1096   58.3727 H       1  ZINC000451500596    0.1200
     51 H51       -10.8637   -3.5406   55.1462 H       1  ZINC000451500596    0.1000
     52 H52       -11.1508   -2.2485   56.3451 H       1  ZINC000451500596    0.0700
@<TRIPOS>BOND
     1     1     2    1
     2     1    29    1
     3     1    30    1
     4     1    31    1
     5     2     3    2
     6     2     4    2
     7     2     5   am
     8     5     6    1
     9     5    32    1
    10     6     7    1
    11     6    33    1
    12     6    34    1
    13     7     8    1
    14     7    12    1
    15     7     9    1
    16     9    10    1
    17     9    35    1
    18     9    36    1
    19    10    11    1
    20    10    37    1
    21    10    38    1
    22    11    12    1
    23    11    39    1
    24    11    40    1
    25    12    13    1
    26    12    14    1
    27    14    15   am
    28    14    41    1
    29    15    16    2
    30    15    17    1
    31    17    18    1
    32    17    28    1
    33    17    19    1
    34    19    20    1
    35    19    42    1
    36    19    43    1
    37    20    21    1
    38    20    44    1
    39    20    45    1
    40    21    22    1
    41    21    28    1
    42    22    27   ar
    43    22    23   ar
    44    23    24   ar
    45    23    46    1
    46    24    25   ar
    47    24    47    1
    48    25    26   ar
    49    25    48    1
    50    26    27   ar
    51    26    49    1
    52    27    50    1
    53    28    51    1
    54    28    52    1
@<TRIPOS>SUBSTRUCTURE
     1 ZINC000451500596        1 TEMP              0 ****  ****    0 ROOT


##########                                Name:    ZINC000012087388
##########                DOCK_Rotatable_Bonds:                   5
##########                         Heavy_Atoms:                  29
##########                    Molecular_Weight:              418.52
##########                DOCK_Rotatable_Bonds:                   5
##########                       Formal_Charge:          -0.0499999
##########                     HBond_Acceptors:                  10
##########                        HBond_Donors:                   1
##########                         Heavy_Atoms:                  29
##########                          Grid_Score:          -31.768007
##########                     Grid_vdw_energy:          -30.297028
##########                      Grid_es_energy:           -1.470980
##########           Internal_energy_repulsive:           30.587332

@<TRIPOS>MOLECULE
ZINC000012087388
 55 58 1 0 0
SMALL
USER_CHARGES


@<TRIPOS>ATOM
      1 C1        -15.3248   -1.5959   53.6511 C.3     1  <0>        -0.6600
      2 S2        -14.7584   -3.2911   53.9610 S.o2    1  <0>         2.5100
      3 O3        -15.8449   -4.1143   54.3620 O.2     1  <0>        -0.9400
      4 O4        -13.8583   -3.7097   52.9443 O.2     1  <0>        -0.9300
      5 C5        -13.7551   -3.1625   55.4036 C.ar    1  <0>        -0.8400
      6 C6        -14.1566   -3.7376   56.5989 C.ar    1  <0>         0.3000
      7 N7        -13.3797   -3.6229   57.6633 N.ar    1  <0>        -0.5800
      8 C8        -12.2302   -2.9678   57.5954 C.ar    1  <0>         0.6000
      9 N9        -11.4418   -2.8672   58.7285 N.pl3   1  <0>        -0.5700
     10 C10       -10.3099   -3.7806   58.9365 C.3     1  <0>         0.1200
     11 C11        -9.0484   -2.9512   59.1967 C.3     1  <0>        -0.1400
     12 C12        -9.3045   -1.9922   60.3614 C.3     1  <0>        -0.1200
     13 C13       -10.4438   -1.0374   59.9974 C.3     1  <0>        -0.1400
     14 C14       -11.7174   -1.8412   59.7434 C.3     1  <0>         0.1200
     15 N15       -11.8170   -2.4070   56.4682 N.ar    1  <0>        -0.5700
     16 C16       -12.5441   -2.4888   55.3663 C.ar    1  <0>         0.3200
     17 C17       -12.0669   -1.8481   54.0886 C.3     1  <0>        -0.0700
     18 C18       -11.6158   -0.4139   54.3747 C.3     1  <0>        -0.1300
     19 C19       -11.1640    0.2454   53.0678 C.3     1  <0>         0.0900
     20 N20       -10.1351   -0.5976   52.4439 N.am    1  <0>        -0.6100
     21 C21        -8.9407   -0.0792   52.0960 C.2     1  <0>         0.5900
     22 O22        -8.0972   -0.7876   51.5803 O.2     1  <0>        -0.5100
     23 C23        -8.6570    1.3441   52.3403 C.2     1  <0>        -0.0400
     24 C24        -9.2997    2.4290   51.7698 C.2     1  <0>        -0.1500
     25 C25        -8.6776    3.5553   52.3133 C.2     1  <0>         0.0000
     26 N26        -7.7467    3.1422   53.1350 N.2     1  <0>        -0.2700
     27 N27        -7.7106    1.8591   53.1799 N.pl3   1  <0>        -0.3900
     28 C28       -10.4329   -2.0167   52.2067 C.3     1  <0>         0.1100
     29 C29       -10.8928   -2.6507   53.5232 C.3     1  <0>        -0.1200
     30 H30       -15.8921   -1.2394   54.5108 H       1  <0>         0.1400
     31 H31       -14.4628   -0.9483   53.4907 H       1  <0>         0.1300
     32 H32       -15.9599   -1.5812   52.7652 H       1  <0>         0.1400
     33 H33       -15.0928   -4.2726   56.6606 H       1  <0>         0.1900
     34 H34       -10.5100   -4.4207   59.7958 H       1  <0>         0.0700
     35 H35       -10.1671   -4.3939   58.0469 H       1  <0>         0.1000
     36 H36        -8.2215   -3.6156   59.4474 H       1  <0>         0.0800
     37 H37        -8.7983   -2.3795   58.3029 H       1  <0>         0.0700
     38 H38        -9.5787   -2.5633   61.2485 H       1  <0>         0.0700
     39 H39        -8.4005   -1.4180   60.5646 H       1  <0>         0.0700
     40 H40       -10.6100   -0.3396   60.8181 H       1  <0>         0.0800
     41 H41       -10.1804   -0.4837   59.0961 H       1  <0>         0.0700
     42 H42       -12.5044   -1.1760   59.3882 H       1  <0>         0.1000
     43 H43       -12.0343   -2.3251   60.6673 H       1  <0>         0.0700
     44 H44       -12.8803   -1.8347   53.3631 H       1  <0>         0.1000
     45 H45       -12.4460    0.1507   54.7990 H       1  <0>         0.0800
     46 H46       -10.7857   -0.4278   55.0811 H       1  <0>         0.0900
     47 H47       -12.0153    0.3420   52.3940 H       1  <0>         0.0800
     48 H48       -10.7496    1.2310   53.2800 H       1  <0>         0.0900
     49 H49       -10.1100    2.4090   51.0561 H       1  <0>         0.1700
     50 H50        -8.9213    4.5843   52.0939 H       1  <0>         0.1900
     51 H51        -7.0999    1.3356   53.7219 H       1  <0>         0.4400
     52 H52       -11.2245   -2.1046   51.4626 H       1  <0>         0.0800
     53 H53        -9.5360   -2.5237   51.8507 H       1  <0>         0.1000
     54 H54       -10.0697   -2.6435   54.2376 H       1  <0>         0.0800
     55 H55       -11.2085   -3.6781   53.3415 H       1  <0>         0.0900
@<TRIPOS>BOND
     1     1     2    1
     2     1    30    1
     3     1    31    1
     4     1    32    1
     5     2     3    2
     6     2     4    2
     7     2     5    1
     8     5    16   ar
     9     5     6   ar
    10     6     7   ar
    11     6    33    1
    12     7     8   ar
    13     8     9    1
    14     8    15   ar
    15     9    14    1
    16     9    10    1
    17    10    11    1
    18    10    34    1
    19    10    35    1
    20    11    12    1
    21    11    36    1
    22    11    37    1
    23    12    13    1
    24    12    38    1
    25    12    39    1
    26    13    14    1
    27    13    40    1
    28    13    41    1
    29    14    42    1
    30    14    43    1
    31    15    16   ar
    32    16    17    1
    33    17    29    1
    34    17    18    1
    35    17    44    1
    36    18    19    1
    37    18    45    1
    38    18    46    1
    39    19    20    1
    40    19    47    1
    41    19    48    1
    42    20    21   am
    43    20    28    1
    44    21    22    2
    45    21    23    1
    46    23    27    1
    47    23    24    2
    48    24    25    1
    49    24    49    1
    50    25    26    2
    51    25    50    1
    52    26    27    1
    53    27    51    1
    54    28    29    1
    55    28    52    1
    56    28    53    1
    57    29    54    1
    58    29    55    1
@<TRIPOS>SUBSTRUCTURE
     1 <0>         1 TEMP              0 ****  ****    0 ROOT


##########                                Name:    ZINC000331626032
##########                DOCK_Rotatable_Bonds:                   5
##########                         Heavy_Atoms:                  25
##########                    Molecular_Weight:              339.44
##########                DOCK_Rotatable_Bonds:                   5
##########                       Formal_Charge:        -2.16067e-07
##########                     HBond_Acceptors:                   6
##########                        HBond_Donors:                   2
##########                         Heavy_Atoms:                  25
##########                          Grid_Score:          -31.755674
##########                     Grid_vdw_energy:          -30.927677
##########                      Grid_es_energy:           -0.827998
##########           Internal_energy_repulsive:          184.857803

@<TRIPOS>MOLECULE
ZINC000331626032
 50 52 1 0 0
SMALL
USER_CHARGES


@<TRIPOS>ATOM
      1 C1        -11.7519   -4.1410   53.3549 C.3     1  ZINC000331626032   -0.2000
      2 C2        -12.5436   -2.9447   53.8870 C.3     1  ZINC000331626032    0.0700
      3 H3        -11.8736   -2.0951   54.0184 H       1  ZINC000331626032    0.1100
      4 C4        -13.6273   -2.5825   52.9044 C.2     1  ZINC000331626032    0.5200
      5 O5        -14.7671   -2.9506   53.0958 O.2     1  ZINC000331626032   -0.5000
      6 N6        -13.3300   -1.8495   51.8133 N.am    1  ZINC000331626032   -0.5800
      7 C7        -11.9535   -1.4050   51.5822 C.3     1  ZINC000331626032    0.0800
      8 C8        -14.3364   -1.5131   50.9010 C.ar    1  ZINC000331626032    0.1400
      9 C9        -14.0308   -0.7619   49.7736 C.ar    1  ZINC000331626032   -0.1000
     10 C10       -15.0263   -0.4317   48.8750 C.ar    1  ZINC000331626032   -0.1100
     11 C11       -16.3261   -0.8476   49.0972 C.ar    1  ZINC000331626032   -0.1200
     12 C12       -16.6337   -1.5954   50.2190 C.ar    1  ZINC000331626032   -0.1100
     13 C13       -15.6416   -1.9347   51.1179 C.ar    1  ZINC000331626032   -0.1200
     14 N14       -13.1503   -3.2944   55.1784 N.3     1  ZINC000331626032   -0.5100
     15 C15       -13.6171   -4.6866   55.1807 C.3     1  ZINC000331626032    0.0500
     16 C16       -14.3704   -4.9712   56.4821 C.3     1  ZINC000331626032   -0.1100
     17 C17       -13.4372   -4.7243   57.6707 C.3     1  ZINC000331626032   -0.1100
     18 C18       -12.9270   -3.2816   57.6177 C.3     1  ZINC000331626032   -0.0400
     19 H19       -13.7684   -2.5945   57.7079 H       1  ZINC000331626032    0.1000
     20 C20       -11.9622   -3.0471   58.7514 C.ar    1  ZINC000331626032    0.2300
     21 C21       -12.3790   -2.4017   59.9047 C.ar    1  ZINC000331626032   -0.2900
     22 C22       -11.4596   -2.2059   60.9237 C.ar    1  ZINC000331626032    0.1900
     23 N23       -10.2197   -2.6383   60.7659 N.ar    1  ZINC000331626032   -0.5700
     24 C24        -9.8534   -3.2520   59.6501 C.ar    1  ZINC000331626032    0.5700
     25 N25        -8.5477   -3.6921   59.5186 N.pl3   1  ZINC000331626032   -0.8200
     26 N26       -10.7086   -3.4596   58.6598 N.ar    1  ZINC000331626032   -0.5700
     27 C27       -12.2156   -3.0459   56.2834 C.3     1  ZINC000331626032    0.0700
     28 H28       -12.4219   -4.9906   53.2234 H       1  ZINC000331626032    0.0700
     29 H29       -11.3018   -3.8816   52.3967 H       1  ZINC000331626032    0.0800
     30 H30       -10.9680   -4.4030   54.0656 H       1  ZINC000331626032    0.0700
     31 H31       -11.4222   -2.1563   50.9978 H       1  ZINC000331626032    0.0600
     32 H32       -11.9631   -0.4609   51.0373 H       1  ZINC000331626032    0.0800
     33 H33       -11.4507   -1.2670   52.5393 H       1  ZINC000331626032    0.0800
     34 H34       -13.0158   -0.4361   49.5999 H       1  ZINC000331626032    0.1200
     35 H35       -14.7893    0.1526   47.9982 H       1  ZINC000331626032    0.1300
     36 H36       -17.1029   -0.5878   48.3932 H       1  ZINC000331626032    0.1300
     37 H37       -17.6501   -1.9183   50.3901 H       1  ZINC000331626032    0.1300
     38 H38       -15.8825   -2.5187   51.9939 H       1  ZINC000331626032    0.1200
     39 H39       -14.2831   -4.8478   54.3330 H       1  ZINC000331626032    0.0900
     40 H40       -12.7611   -5.3569   55.1025 H       1  ZINC000331626032    0.0300
     41 H41       -15.2344   -4.3108   56.5545 H       1  ZINC000331626032    0.0800
     42 H42       -14.7033   -6.0092   56.4904 H       1  ZINC000331626032    0.0700
     43 H43       -13.9822   -4.8840   58.6010 H       1  ZINC000331626032    0.0700
     44 H44       -12.5926   -5.4114   57.6197 H       1  ZINC000331626032    0.0700
     45 H45       -13.3978   -2.0582   60.0073 H       1  ZINC000331626032    0.1400
     46 H46       -11.7523   -1.7061   61.8353 H       1  ZINC000331626032    0.1700
     47 H47        -7.9132   -3.5500   60.2383 H       1  ZINC000331626032    0.4100
     48 H48        -8.2673   -4.1427   58.7066 H       1  ZINC000331626032    0.4100
     49 H49       -11.3662   -3.7238   56.2000 H       1  ZINC000331626032    0.0400
     50 H50       -11.8636   -2.0153   56.2365 H       1  ZINC000331626032    0.0800
@<TRIPOS>BOND
     1     1     2    1
     2     1    28    1
     3     1    29    1
     4     1    30    1
     5     2     3    1
     6     2     4    1
     7     2    14    1
     8     4     5    2
     9     4     6   am
    10     6     7    1
    11     6     8    1
    12     7    31    1
    13     7    32    1
    14     7    33    1
    15     8    13   ar
    16     8     9   ar
    17     9    10   ar
    18     9    34    1
    19    10    11   ar
    20    10    35    1
    21    11    12   ar
    22    11    36    1
    23    12    13   ar
    24    12    37    1
    25    13    38    1
    26    14    27    1
    27    14    15    1
    28    15    16    1
    29    15    39    1
    30    15    40    1
    31    16    17    1
    32    16    41    1
    33    16    42    1
    34    17    18    1
    35    17    43    1
    36    17    44    1
    37    18    19    1
    38    18    20    1
    39    18    27    1
    40    20    26   ar
    41    20    21   ar
    42    21    22   ar
    43    21    45    1
    44    22    23   ar
    45    22    46    1
    46    23    24   ar
    47    24    25    1
    48    24    26   ar
    49    25    47    1
    50    25    48    1
    51    27    49    1
    52    27    50    1
@<TRIPOS>SUBSTRUCTURE
     1 ZINC000331626032        1 TEMP              0 ****  ****    0 ROOT


##########                                Name:    ZINC000440379747
##########                DOCK_Rotatable_Bonds:                   8
##########                         Heavy_Atoms:                  27
##########                    Molecular_Weight:             394.452
##########                DOCK_Rotatable_Bonds:                   8
##########                       Formal_Charge:           0.0199995
##########                     HBond_Acceptors:                  10
##########                        HBond_Donors:                   3
##########                         Heavy_Atoms:                  27
##########                          Grid_Score:          -31.747976
##########                     Grid_vdw_energy:          -31.812222
##########                      Grid_es_energy:            0.064245
##########           Internal_energy_repulsive:           29.208290

@<TRIPOS>MOLECULE
ZINC000440379747
 49 51 1 0 0
SMALL
USER_CHARGES


@<TRIPOS>ATOM
      1 C1         -8.3239    2.7900   65.9757 C.3     1  ZINC000440379747   -0.1800
      2 C2         -8.4920    1.6383   65.0184 C.2     1  ZINC000440379747    0.5200
      3 O3         -7.8078    0.6441   65.1397 O.2     1  ZINC000440379747   -0.5200
      4 N4         -9.4023    1.7131   64.0273 N.am    1  ZINC000440379747   -0.5500
      5 C5        -10.2833    2.8577   63.7805 C.3     1  ZINC000440379747    0.1100
      6 C6        -11.1242    2.4630   62.5556 C.3     1  ZINC000440379747   -0.0900
      7 C7        -10.6388    1.0783   62.1898 C.ar    1  ZINC000440379747   -0.1100
      8 C8        -11.0258    0.2228   61.1777 C.ar    1  ZINC000440379747   -0.0700
      9 C9        -10.4188   -1.0198   61.0458 C.ar    1  ZINC000440379747    0.1200
     10 N10       -10.8092   -1.8873   60.0210 N.am    1  ZINC000440379747   -0.6400
     11 C11        -9.9492   -2.1868   59.0274 C.2     1  ZINC000440379747    0.5100
     12 O12        -8.8358   -1.7034   59.0221 O.2     1  ZINC000440379747   -0.4900
     13 C13       -10.3662   -3.1133   57.9330 C.2     1  ZINC000440379747    0.5200
     14 O14       -10.1277   -4.3002   58.0189 O.2     1  ZINC000440379747   -0.5100
     15 N15       -11.0074   -2.6315   56.8499 N.am    1  ZINC000440379747   -0.5800
     16 C16       -11.3590   -1.2187   56.6174 C.3     1  ZINC000440379747    0.1000
     17 C17       -11.4813   -1.0886   55.0787 C.3     1  ZINC000440379747   -0.1300
     18 C18       -12.1204   -2.4510   54.7007 C.3     1  ZINC000440379747   -0.1600
     19 C19       -11.4665   -3.4267   55.7017 C.3     1  ZINC000440379747    0.1500
     20 H20       -10.6215   -3.9295   55.2312 H       1  ZINC000440379747    0.1000
     21 C21       -12.4937   -4.4607   56.1671 C.3     1  ZINC000440379747   -0.6500
     22 S22       -13.6408   -3.6877   57.3405 S.o2    1  ZINC000440379747    2.6200
     23 N23       -14.8509   -4.8021   57.5303 N.am    1  ZINC000440379747   -1.2500
     24 O24       -13.0475   -3.5919   58.6282 O.2     1  ZINC000440379747   -0.9500
     25 O25       -14.2845   -2.5695   56.7454 O.2     1  ZINC000440379747   -0.9500
     26 C26        -9.4215   -1.3960   61.9368 C.ar    1  ZINC000440379747   -0.1000
     27 C27        -9.0368   -0.5407   62.9460 C.ar    1  ZINC000440379747   -0.1400
     28 C28        -9.6403    0.7114   63.0791 C.ar    1  ZINC000440379747    0.1400
     29 H29        -7.5481    2.5484   66.7021 H       1  ZINC000440379747    0.1000
     30 H30        -8.0375    3.6840   65.4218 H       1  ZINC000440379747    0.1000
     31 H31        -9.2648    2.9705   66.4955 H       1  ZINC000440379747    0.1000
     32 H32       -10.9282    3.0309   64.6420 H       1  ZINC000440379747    0.0900
     33 H33        -9.6940    3.7485   63.5633 H       1  ZINC000440379747    0.0900
     34 H34       -12.1831    2.4389   62.8133 H       1  ZINC000440379747    0.0900
     35 H35       -10.9478    3.1570   61.7338 H       1  ZINC000440379747    0.1000
     36 H36       -11.8018    0.5198   60.4879 H       1  ZINC000440379747    0.1400
     37 H37       -11.6990   -2.2735   60.0252 H       1  ZINC000440379747    0.4200
     38 H38       -12.3094   -0.9808   57.0951 H       1  ZINC000440379747    0.0800
     39 H39       -10.5711   -0.5652   56.9920 H       1  ZINC000440379747    0.1000
     40 H40       -12.1368   -0.2610   54.8074 H       1  ZINC000440379747    0.1000
     41 H41       -10.5004   -0.9756   54.6168 H       1  ZINC000440379747    0.0800
     42 H42       -13.2014   -2.4208   54.8362 H       1  ZINC000440379747    0.1000
     43 H43       -11.8664   -2.7252   53.6766 H       1  ZINC000440379747    0.1000
     44 H44       -13.0499   -4.8329   55.3068 H       1  ZINC000440379747    0.1500
     45 H45       -11.9797   -5.2896   56.6538 H       1  ZINC000440379747    0.1400
     46 H46       -15.3731   -5.0864   56.7639 H       1  ZINC000440379747    0.4100
     47 H47       -15.0376   -5.1706   58.4080 H       1  ZINC000440379747    0.4200
     48 H48        -8.9470   -2.3611   61.8383 H       1  ZINC000440379747    0.1400
     49 H49        -8.2612   -0.8388   63.6359 H       1  ZINC000440379747    0.1500
@<TRIPOS>BOND
     1     1     2    1
     2     1    29    1
     3     1    30    1
     4     1    31    1
     5     2     3    2
     6     2     4   am
     7     4    28    1
     8     4     5    1
     9     5     6    1
    10     5    32    1
    11     5    33    1
    12     6     7    1
    13     6    34    1
    14     6    35    1
    15     7    28   ar
    16     7     8   ar
    17     8     9   ar
    18     8    36    1
    19     9    10    1
    20     9    26   ar
    21    10    11   am
    22    10    37    1
    23    11    12    2
    24    11    13    1
    25    13    14    2
    26    13    15   am
    27    15    19    1
    28    15    16    1
    29    16    17    1
    30    16    38    1
    31    16    39    1
    32    17    18    1
    33    17    40    1
    34    17    41    1
    35    18    19    1
    36    18    42    1
    37    18    43    1
    38    19    20    1
    39    19    21    1
    40    21    22    1
    41    21    44    1
    42    21    45    1
    43    22    23   am
    44    22    24    2
    45    22    25    2
    46    23    46    1
    47    23    47    1
    48    26    27   ar
    49    26    48    1
    50    27    28   ar
    51    27    49    1
@<TRIPOS>SUBSTRUCTURE
     1 ZINC000440379747        1 TEMP              0 ****  ****    0 ROOT


##########                                Name:    ZINC000609484313
##########                DOCK_Rotatable_Bonds:                  10
##########                         Heavy_Atoms:                  26
##########                    Molecular_Weight:             361.487
##########                DOCK_Rotatable_Bonds:                  10
##########                       Formal_Charge:          -0.0200004
##########                     HBond_Acceptors:                   7
##########                        HBond_Donors:                   1
##########                         Heavy_Atoms:                  26
##########                          Grid_Score:          -31.732533
##########                     Grid_vdw_energy:          -30.665045
##########                      Grid_es_energy:           -1.067488
##########           Internal_energy_repulsive:           28.017551

@<TRIPOS>MOLECULE
ZINC000609484313
 57 58 1 0 0
SMALL
USER_CHARGES


@<TRIPOS>ATOM
      1 C1        -14.9805   -2.8048   57.6338 C.3     1  ZINC000609484313   -0.1500
      2 C2        -13.4931   -2.7900   57.9921 C.3     1  ZINC000609484313   -0.1300
      3 C3        -12.6706   -2.4698   56.7423 C.3     1  ZINC000609484313   -0.1100
      4 C4        -11.1845   -2.4365   57.1046 C.3     1  ZINC000609484313   -0.1100
      5 C5        -10.7866   -1.0118   57.4956 C.3     1  ZINC000609484313    0.0800
      6 H6        -11.6810   -0.3940   57.5762 H       1  ZINC000609484313    0.1200
      7 C7        -10.0714   -1.0359   58.8218 C.2     1  ZINC000609484313    0.4900
      8 O8         -9.0314   -1.6486   58.9388 O.2     1  ZINC000609484313   -0.5000
      9 N9        -10.5878   -0.3767   59.8779 N.am    1  ZINC000609484313   -0.6300
     10 C10        -9.9248   -0.3977   61.1051 C.2     1  ZINC000609484313    0.2400
     11 N11        -9.1134   -1.3244   61.5430 N.2     1  ZINC000609484313   -0.3900
     12 O12        -8.6942   -1.0607   62.6461 O.3     1  ZINC000609484313    0.1000
     13 C13        -9.1829    0.1033   63.0981 C.2     1  ZINC000609484313   -0.0200
     14 C14        -8.8842    0.7506   64.4258 C.3     1  ZINC000609484313   -0.0800
     15 C15        -9.9911    0.5864   62.1271 C.2     1  ZINC000609484313   -0.2300
     16 N16        -9.8964   -0.4529   56.4693 N.3     1  ZINC000609484313   -0.5000
     17 C17        -9.3520    0.8443   56.8940 C.3     1  ZINC000609484313    0.0400
     18 C18        -8.3708    1.3539   55.8359 C.3     1  ZINC000609484313    0.0500
     19 N19        -9.0643    1.4739   54.5458 N.3     1  ZINC000609484313   -0.5100
     20 C20        -8.1741    2.0328   53.5195 C.3     1  ZINC000609484313    0.1800
     21 H21        -7.2259    2.3162   53.9762 H       1  ZINC000609484313    0.1200
     22 C22        -7.9336    1.0229   52.4758 C.1     1  ZINC000609484313    0.1700
     23 N23        -7.7481    0.2436   51.6704 N.1     1  ZINC000609484313   -0.4200
     24 C24        -8.8280    3.2666   52.8943 C.3     1  ZINC000609484313   -0.0800
     25 C25        -7.9237    3.8191   51.7906 C.3     1  ZINC000609484313   -0.1400
     26 C26       -10.1824    2.8787   52.2973 C.3     1  ZINC000609484313   -0.1500
     27 C27        -9.6086    0.1767   54.1211 C.3     1  ZINC000609484313    0.0500
     28 C28       -10.5899   -0.3329   55.1792 C.3     1  ZINC000609484313    0.0400
     29 H29       -15.2710   -1.8276   57.2483 H       1  ZINC000609484313    0.0500
     30 H30       -15.1636   -3.5644   56.8738 H       1  ZINC000609484313    0.0500
     31 H31       -15.5664   -3.0330   58.5242 H       1  ZINC000609484313    0.0500
     32 H32       -13.3100   -2.0305   58.7521 H       1  ZINC000609484313    0.0600
     33 H33       -13.2025   -3.7673   58.3777 H       1  ZINC000609484313    0.0600
     34 H34       -12.8435   -3.2366   55.9872 H       1  ZINC000609484313    0.0800
     35 H35       -12.9705   -1.4984   56.3491 H       1  ZINC000609484313    0.0600
     36 H36       -10.9996   -3.1083   57.9427 H       1  ZINC000609484313    0.0700
     37 H37       -10.5940   -2.7559   56.2459 H       1  ZINC000609484313    0.0800
     38 H38       -11.4202    0.1123   59.7846 H       1  ZINC000609484313    0.4200
     39 H39        -8.1936    0.1227   64.9888 H       1  ZINC000609484313    0.0800
     40 H40        -8.4331    1.7288   64.2597 H       1  ZINC000609484313    0.0900
     41 H41        -9.8100    0.8683   64.9891 H       1  ZINC000609484313    0.0900
     42 H42       -10.5606    1.5039   62.1310 H       1  ZINC000609484313    0.1900
     43 H43       -10.1660    1.5599   57.0098 H       1  ZINC000609484313    0.0800
     44 H44        -8.8326    0.7269   57.8451 H       1  ZINC000609484313    0.0800
     45 H45        -7.9877    2.3296   56.1350 H       1  ZINC000609484313    0.0900
     46 H46        -7.5428    0.6516   55.7396 H       1  ZINC000609484313    0.0400
     47 H47        -8.9733    4.0283   53.6602 H       1  ZINC000609484313    0.0800
     48 H48        -7.7784    3.0573   51.0246 H       1  ZINC000609484313    0.0600
     49 H49        -8.3895    4.6981   51.3452 H       1  ZINC000609484313    0.0500
     50 H50        -6.9589    4.0954   52.2159 H       1  ZINC000609484313    0.0700
     51 H51       -10.6058    3.7342   51.7711 H       1  ZINC000609484313    0.0700
     52 H52       -10.0485    2.0526   51.5990 H       1  ZINC000609484313    0.0600
     53 H53       -10.8575    2.5732   53.0965 H       1  ZINC000609484313    0.0500
     54 H54       -10.1281    0.2941   53.1699 H       1  ZINC000609484313    0.0900
     55 H55        -8.7946   -0.5389   54.0052 H       1  ZINC000609484313    0.0400
     56 H56       -10.9730   -1.3085   54.8801 H       1  ZINC000609484313    0.0800
     57 H57       -11.4180    0.3694   55.2755 H       1  ZINC000609484313    0.0800
@<TRIPOS>BOND
     1     1     2    1
     2     1    29    1
     3     1    30    1
     4     1    31    1
     5     2     3    1
     6     2    32    1
     7     2    33    1
     8     3     4    1
     9     3    34    1
    10     3    35    1
    11     4     5    1
    12     4    36    1
    13     4    37    1
    14     5     6    1
    15     5     7    1
    16     5    16    1
    17     7     8    2
    18     7     9   am
    19     9    10    1
    20     9    38    1
    21    10    15    1
    22    10    11    2
    23    11    12    1
    24    12    13    1
    25    13    14    1
    26    13    15    2
    27    14    39    1
    28    14    40    1
    29    14    41    1
    30    15    42    1
    31    16    28    1
    32    16    17    1
    33    17    18    1
    34    17    43    1
    35    17    44    1
    36    18    19    1
    37    18    45    1
    38    18    46    1
    39    19    20    1
    40    19    27    1
    41    20    21    1
    42    20    22    1
    43    20    24    1
    44    22    23    3
    45    24    25    1
    46    24    26    1
    47    24    47    1
    48    25    48    1
    49    25    49    1
    50    25    50    1
    51    26    51    1
    52    26    52    1
    53    26    53    1
    54    27    28    1
    55    27    54    1
    56    27    55    1
    57    28    56    1
    58    28    57    1
@<TRIPOS>SUBSTRUCTURE
     1 ZINC000609484313        1 TEMP              0 ****  ****    0 ROOT


##########                                Name:    ZINC000836820897
##########                DOCK_Rotatable_Bonds:                   5
##########                         Heavy_Atoms:                  22
##########                    Molecular_Weight:             330.355
##########                DOCK_Rotatable_Bonds:                   5
##########                       Formal_Charge:          -0.0200003
##########                     HBond_Acceptors:                   8
##########                        HBond_Donors:                   1
##########                         Heavy_Atoms:                  22
##########                          Grid_Score:          -31.726217
##########                     Grid_vdw_energy:          -31.550564
##########                      Grid_es_energy:           -0.175654
##########           Internal_energy_repulsive:            7.291001

@<TRIPOS>MOLECULE
ZINC000836820897
 38 40 1 0 0
SMALL
USER_CHARGES


@<TRIPOS>ATOM
      1 O1        -10.1482   -5.1325   58.2608 O.2     1  ZINC000836820897   -0.5200
      2 C2        -10.7391   -4.0739   58.1715 C.2     1  ZINC000836820897    0.5800
      3 C3        -11.7728   -3.8905   57.1321 C.ar    1  ZINC000836820897   -0.1600
      4 C4        -13.1191   -3.8000   57.4911 C.ar    1  ZINC000836820897   -0.0100
      5 C5        -14.0795   -3.6283   56.5171 C.ar    1  ZINC000836820897   -0.1700
      6 C6        -13.7107   -3.5456   55.1834 C.ar    1  ZINC000836820897    0.2200
      7 F7        -14.6560   -3.3773   54.2328 F       1  ZINC000836820897   -0.1100
      8 C8        -12.3750   -3.6343   54.8213 C.ar    1  ZINC000836820897   -0.7200
      9 S9        -11.9150   -3.5270   53.1238 S.o2    1  ZINC000836820897    2.7000
     10 O10       -11.6279   -4.8530   52.7013 O.2     1  ZINC000836820897   -0.9400
     11 O11       -12.8887   -2.7048   52.4954 O.2     1  ZINC000836820897   -0.9400
     12 N12       -10.4851   -2.6944   53.0551 N.am    1  ZINC000836820897   -1.0800
     13 C13       -10.4105   -1.3235   53.5660 C.3     1  ZINC000836820897    0.0700
     14 C14        -9.2637   -0.4439   53.0638 C.3     1  ZINC000836820897   -0.1800
     15 C15       -10.6927   -0.1866   52.5817 C.3     1  ZINC000836820897   -0.1900
     16 C16       -11.4063   -3.8011   55.7873 C.ar    1  ZINC000836820897    0.0600
     17 N17       -10.4553   -3.0695   59.0242 N.am    1  ZINC000836820897   -0.6200
     18 C18        -9.4505   -3.1141   60.0965 C.3     1  ZINC000836820897    0.0900
     19 C19        -9.4582   -1.7351   60.7893 C.3     1  ZINC000836820897   -0.1600
     20 C20       -10.0662   -0.8054   59.7060 C.3     1  ZINC000836820897    0.0800
     21 H21        -9.3062   -0.4881   58.9921 H       1  ZINC000836820897    0.1100
     22 F22       -10.6951    0.2998   60.2893 F       1  ZINC000836820897   -0.1900
     23 C23       -11.0965   -1.7420   59.0321 C.3     1  ZINC000836820897    0.0800
     24 H24       -13.4075   -3.8647   58.5299 H       1  ZINC000836820897    0.1500
     25 H25       -15.1212   -3.5586   56.7937 H       1  ZINC000836820897    0.1600
     26 H26        -9.6969   -3.1146   52.6767 H       1  ZINC000836820897    0.4200
     27 H27       -10.7346   -1.1879   54.5977 H       1  ZINC000836820897    0.1400
     28 H28        -8.8329    0.2704   53.7654 H       1  ZINC000836820897    0.1100
     29 H29        -8.5647   -0.8854   52.3535 H       1  ZINC000836820897    0.1000
     30 H30       -10.9340   -0.4586   51.5541 H       1  ZINC000836820897    0.1000
     31 H31       -11.2022    0.6971   52.9661 H       1  ZINC000836820897    0.1000
     32 H32       -10.3663   -3.8698   55.5043 H       1  ZINC000836820897    0.1600
     33 H33        -9.7096   -3.8915   60.8153 H       1  ZINC000836820897    0.0800
     34 H34        -8.4653   -3.3109   59.6735 H       1  ZINC000836820897    0.0800
     35 H35       -10.0877   -1.7539   61.6788 H       1  ZINC000836820897    0.0900
     36 H36        -8.4441   -1.4236   61.0396 H       1  ZINC000836820897    0.1000
     37 H37       -11.3021   -1.4102   58.0144 H       1  ZINC000836820897    0.1000
     38 H38       -12.0172   -1.7749   59.6146 H       1  ZINC000836820897    0.0900
@<TRIPOS>BOND
     1     1     2    2
     2     2     3    1
     3     2    17   am
     4     3    16   ar
     5     3     4   ar
     6     4     5   ar
     7     4    24    1
     8     5     6   ar
     9     5    25    1
    10     6     7    1
    11     6     8   ar
    12     8     9    1
    13     8    16   ar
    14     9    10    2
    15     9    11    2
    16     9    12   am
    17    12    13    1
    18    12    26    1
    19    13    15    1
    20    13    14    1
    21    13    27    1
    22    14    15    1
    23    14    28    1
    24    14    29    1
    25    15    30    1
    26    15    31    1
    27    16    32    1
    28    17    23    1
    29    17    18    1
    30    18    19    1
    31    18    33    1
    32    18    34    1
    33    19    20    1
    34    19    35    1
    35    19    36    1
    36    20    21    1
    37    20    22    1
    38    20    23    1
    39    23    37    1
    40    23    38    1
@<TRIPOS>SUBSTRUCTURE
     1 ZINC000836820897        1 TEMP              0 ****  ****    0 ROOT


##########                                Name:    ZINC000518234532
##########                DOCK_Rotatable_Bonds:                   5
##########                         Heavy_Atoms:                  25
##########                    Molecular_Weight:             408.267
##########                DOCK_Rotatable_Bonds:                   5
##########                       Formal_Charge:         -0.00999981
##########                     HBond_Acceptors:                   5
##########                        HBond_Donors:                   1
##########                         Heavy_Atoms:                  25
##########                          Grid_Score:          -31.724777
##########                     Grid_vdw_energy:          -30.319324
##########                      Grid_es_energy:           -1.405454
##########           Internal_energy_repulsive:           17.241188

@<TRIPOS>MOLECULE
ZINC000518234532
 44 46 1 0 0
SMALL
USER_CHARGES


@<TRIPOS>ATOM
      1 C1        -12.2521   -1.7266   59.2688 C.3     1  ZINC000518234532   -0.1600
      2 C2        -10.7998   -1.2839   59.0793 C.3     1  ZINC000518234532    0.1800
      3 H3        -10.2540   -2.0529   58.5325 H       1  ZINC000518234532    0.1100
      4 N4        -10.7663   -0.0299   58.3226 N.am    1  ZINC000518234532   -0.7300
      5 C5         -9.6428    0.3360   57.6740 C.2     1  ZINC000518234532    0.5200
      6 O6         -8.6602   -0.3737   57.7157 O.2     1  ZINC000518234532   -0.5200
      7 C7         -9.6078    1.6268   56.8973 C.3     1  ZINC000518234532   -0.0700
      8 H8         -8.8384    2.2790   57.3108 H       1  ZINC000518234532    0.1100
      9 C9        -10.9691    2.3181   56.9951 C.3     1  ZINC000518234532   -0.1400
     10 C10        -9.2953    1.3351   55.4522 C.ar    1  ZINC000518234532   -0.1000
     11 C11        -8.2704    2.0099   54.8167 C.ar    1  ZINC000518234532   -0.0600
     12 C12        -7.9835    1.7425   53.4909 C.ar    1  ZINC000518234532   -0.1300
     13 C13        -8.7217    0.8005   52.7993 C.ar    1  ZINC000518234532   -0.0900
     14 C14        -9.7477    0.1246   53.4326 C.ar    1  ZINC000518234532   -0.1600
     15 C15       -10.0315    0.3868   54.7620 C.ar    1  ZINC000518234532    0.1000
     16 F16       -11.0340   -0.2733   55.3821 F       1  ZINC000518234532   -0.1400
     17 C17       -10.1585   -1.0748   60.4269 C.ar    1  ZINC000518234532   -0.0600
     18 C18       -10.4571    0.0545   61.1652 C.ar    1  ZINC000518234532   -0.1100
     19 C19        -9.8690    0.2494   62.4062 C.ar    1  ZINC000518234532    0.0800
     20 C20        -8.9805   -0.6950   62.9062 C.ar    1  ZINC000518234532    0.0600
     21 C21        -8.6836   -1.8259   62.1602 C.ar    1  ZINC000518234532   -0.0800
     22 C22        -9.2761   -2.0163   60.9254 C.ar    1  ZINC000518234532   -0.0800
     23 Br23       -8.8700   -3.5598   59.9113 Br      1  ZINC000518234532   -0.0300
     24 O24        -8.3984   -0.5269   64.1250 O.3     1  ZINC000518234532   -0.3000
     25 C25        -8.4317    0.7934   64.6777 C.3     1  ZINC000518234532    0.0200
     26 C26        -9.8541    1.3465   64.5158 C.3     1  ZINC000518234532    0.0200
     27 O27       -10.1702    1.3689   63.1197 O.3     1  ZINC000518234532   -0.3000
     28 H28       -12.7160   -1.8778   58.2941 H       1  ZINC000518234532    0.0700
     29 H29       -12.2770   -2.6595   59.8318 H       1  ZINC000518234532    0.0700
     30 H30       -12.7979   -0.9576   59.8156 H       1  ZINC000518234532    0.0600
     31 H31       -11.5525    0.5371   58.2884 H       1  ZINC000518234532    0.4000
     32 H32       -11.1952    2.5292   58.0404 H       1  ZINC000518234532    0.0700
     33 H33       -10.9438    3.2518   56.4332 H       1  ZINC000518234532    0.0700
     34 H34       -11.7384    1.6660   56.5815 H       1  ZINC000518234532    0.0700
     35 H35        -7.6935    2.7467   55.3559 H       1  ZINC000518234532    0.1300
     36 H36        -7.1824    2.2704   52.9951 H       1  ZINC000518234532    0.1300
     37 H37        -8.4970    0.5927   51.7636 H       1  ZINC000518234532    0.1300
     38 H38       -10.3247   -0.6109   52.8919 H       1  ZINC000518234532    0.1400
     39 H39       -11.1490    0.7865   60.7754 H       1  ZINC000518234532    0.1400
     40 H40        -7.9918   -2.5602   62.5456 H       1  ZINC000518234532    0.1500
     41 H41        -8.1699    0.7560   65.7351 H       1  ZINC000518234532    0.1300
     42 H42        -7.7263    1.4322   64.1463 H       1  ZINC000518234532    0.0800
     43 H43       -10.5603    0.7043   65.0422 H       1  ZINC000518234532    0.0800
     44 H44        -9.9036    2.3573   64.9203 H       1  ZINC000518234532    0.1300
@<TRIPOS>BOND
     1     1     2    1
     2     1    28    1
     3     1    29    1
     4     1    30    1
     5     2     3    1
     6     2     4    1
     7     2    17    1
     8     4     5   am
     9     4    31    1
    10     5     6    2
    11     5     7    1
    12     7     8    1
    13     7     9    1
    14     7    10    1
    15     9    32    1
    16     9    33    1
    17     9    34    1
    18    10    15   ar
    19    10    11   ar
    20    11    12   ar
    21    11    35    1
    22    12    13   ar
    23    12    36    1
    24    13    14   ar
    25    13    37    1
    26    14    15   ar
    27    14    38    1
    28    15    16    1
    29    17    22   ar
    30    17    18   ar
    31    18    19   ar
    32    18    39    1
    33    19    27    1
    34    19    20   ar
    35    20    21   ar
    36    20    24    1
    37    21    22   ar
    38    21    40    1
    39    22    23    1
    40    24    25    1
    41    25    26    1
    42    25    41    1
    43    25    42    1
    44    26    27    1
    45    26    43    1
    46    26    44    1
@<TRIPOS>SUBSTRUCTURE
     1 ZINC000518234532        1 TEMP              0 ****  ****    0 ROOT


##########                                Name:    ZINC000646817380
##########                DOCK_Rotatable_Bonds:                   6
##########                         Heavy_Atoms:                  25
##########                    Molecular_Weight:             347.457
##########                DOCK_Rotatable_Bonds:                   6
##########                       Formal_Charge:           0.0199991
##########                     HBond_Acceptors:                   6
##########                        HBond_Donors:                   1
##########                         Heavy_Atoms:                  25
##########                          Grid_Score:          -31.709858
##########                     Grid_vdw_energy:          -30.627111
##########                      Grid_es_energy:           -1.082746
##########           Internal_energy_repulsive:           58.858284

@<TRIPOS>MOLECULE
ZINC000646817380
 54 56 1 0 0
SMALL
USER_CHARGES


@<TRIPOS>ATOM
      1 C1        -13.5435    0.2928   48.3216 C.3     1  ZINC000646817380   -0.1500
      2 C2        -14.9537    0.1218   48.8899 C.3     1  ZINC000646817380   -0.0100
      3 C3        -15.8706   -0.4612   47.8128 C.3     1  ZINC000646817380   -0.1500
      4 C4        -14.9093   -0.8126   50.0715 C.2     1  ZINC000646817380   -0.0100
      5 C5        -13.8655   -1.0069   50.9092 C.2     1  ZINC000646817380   -0.2200
      6 C6        -14.3433   -1.9746   51.8329 C.2     1  ZINC000646817380    0.2400
      7 N7        -13.6454   -2.5207   52.9085 N.am    1  ZINC000646817380   -0.6100
      8 C8        -12.3105   -2.6884   52.8302 C.2     1  ZINC000646817380    0.5200
      9 O9        -11.7159   -2.3627   51.8237 O.2     1  ZINC000646817380   -0.4900
     10 C10       -11.5626   -3.2754   53.9824 C.2     1  ZINC000646817380    0.5300
     11 O11       -10.7467   -4.1535   53.7921 O.2     1  ZINC000646817380   -0.5100
     12 N12       -11.7938   -2.8300   55.2332 N.am    1  ZINC000646817380   -0.5800
     13 C13       -12.7499   -1.7767   55.6046 C.3     1  ZINC000646817380    0.1000
     14 C14       -12.6530   -1.5881   57.1332 C.3     1  ZINC000646817380   -0.1300
     15 C15       -11.2443   -2.1480   57.4638 C.3     1  ZINC000646817380   -0.1000
     16 H16       -10.4735   -1.3991   57.2813 H       1  ZINC000646817380    0.1000
     17 C17       -11.1806   -2.6563   58.9054 C.3     1  ZINC000646817380   -0.0700
     18 H18       -12.1613   -3.0143   59.2185 H       1  ZINC000646817380    0.0800
     19 C19       -10.1423   -3.7915   59.0201 C.3     1  ZINC000646817380   -0.1300
     20 C20        -9.4826   -3.5647   60.4030 C.3     1  ZINC000646817380   -0.1300
     21 C21        -9.3959   -2.0208   60.4912 C.3     1  ZINC000646817380   -0.1200
     22 C22       -10.7072   -1.5301   59.8410 C.3     1  ZINC000646817380   -0.0700
     23 C23       -10.4480   -0.2547   59.0365 C.3     1  ZINC000646817380   -0.1600
     24 C24       -11.7598   -1.2654   60.9193 C.3     1  ZINC000646817380   -0.1400
     25 C25       -11.1344   -3.3226   56.4563 C.3     1  ZINC000646817380    0.0900
     26 N26       -15.5694   -2.2497   51.4717 N.2     1  ZINC000646817380   -0.3800
     27 O27       -15.8989   -1.6090   50.5005 O.3     1  ZINC000646817380    0.1100
     28 H28       -13.5757    0.9687   47.4671 H       1  ZINC000646817380    0.0700
     29 H29       -12.8904    0.7081   49.0890 H       1  ZINC000646817380    0.0600
     30 H30       -13.1599   -0.6768   48.0038 H       1  ZINC000646817380    0.0600
     31 H31       -15.3374    1.0914   49.2076 H       1  ZINC000646817380    0.1100
     32 H32       -15.4869   -1.4308   47.4950 H       1  ZINC000646817380    0.0600
     33 H33       -16.8752   -0.5830   48.2176 H       1  ZINC000646817380    0.0600
     34 H34       -15.9026    0.2146   46.9582 H       1  ZINC000646817380    0.0700
     35 H35       -12.8940   -0.5360   50.8820 H       1  ZINC000646817380    0.1900
     36 H36       -14.1204   -2.7799   53.7135 H       1  ZINC000646817380    0.4300
     37 H37       -12.4914   -0.8462   55.0991 H       1  ZINC000646817380    0.0800
     38 H38       -13.7606   -2.0806   55.3320 H       1  ZINC000646817380    0.0800
     39 H39       -12.7200   -0.5325   57.3965 H       1  ZINC000646817380    0.0900
     40 H40       -13.4260   -2.1635   57.6426 H       1  ZINC000646817380    0.0800
     41 H41       -10.6345   -4.7635   58.9870 H       1  ZINC000646817380    0.0700
     42 H42        -9.4001   -3.7115   58.2257 H       1  ZINC000646817380    0.0800
     43 H43       -10.1104   -3.9626   61.2004 H       1  ZINC000646817380    0.0700
     44 H44        -8.4882   -4.0100   60.4343 H       1  ZINC000646817380    0.0700
     45 H45        -9.3434   -1.7005   61.5319 H       1  ZINC000646817380    0.0700
     46 H46        -8.5332   -1.6547   59.9345 H       1  ZINC000646817380    0.0700
     47 H47        -9.4835   -0.3316   58.5345 H       1  ZINC000646817380    0.0700
     48 H48       -11.2352   -0.1277   58.2934 H       1  ZINC000646817380    0.0600
     49 H49       -10.4407    0.6035   59.7084 H       1  ZINC000646817380    0.0500
     50 H50       -11.4038   -0.4840   61.5907 H       1  ZINC000646817380    0.0600
     51 H51       -12.6892   -0.9445   60.4488 H       1  ZINC000646817380    0.0500
     52 H52       -11.9365   -2.1792   61.4866 H       1  ZINC000646817380    0.0600
     53 H53       -11.6485   -4.2028   56.8424 H       1  ZINC000646817380    0.0900
     54 H54       -10.0884   -3.5517   56.2534 H       1  ZINC000646817380    0.1000
@<TRIPOS>BOND
     1     1     2    1
     2     1    28    1
     3     1    29    1
     4     1    30    1
     5     2     3    1
     6     2     4    1
     7     2    31    1
     8     3    32    1
     9     3    33    1
    10     3    34    1
    11     4    27    1
    12     4     5    2
    13     5     6    1
    14     5    35    1
    15     6     7    1
    16     6    26    2
    17     7     8   am
    18     7    36    1
    19     8     9    2
    20     8    10    1
    21    10    11    2
    22    10    12   am
    23    12    25    1
    24    12    13    1
    25    13    14    1
    26    13    37    1
    27    13    38    1
    28    14    15    1
    29    14    39    1
    30    14    40    1
    31    15    16    1
    32    15    17    1
    33    15    25    1
    34    17    18    1
    35    17    22    1
    36    17    19    1
    37    19    20    1
    38    19    41    1
    39    19    42    1
    40    20    21    1
    41    20    43    1
    42    20    44    1
    43    21    22    1
    44    21    45    1
    45    21    46    1
    46    22    23    1
    47    22    24    1
    48    23    47    1
    49    23    48    1
    50    23    49    1
    51    24    50    1
    52    24    51    1
    53    24    52    1
    54    25    53    1
    55    25    54    1
    56    26    27    1
@<TRIPOS>SUBSTRUCTURE
     1 ZINC000646817380        1 TEMP              0 ****  ****    0 ROOT


##########                                Name:    ZINC000175255939
##########                DOCK_Rotatable_Bonds:                   8
##########                         Heavy_Atoms:                  28
##########                    Molecular_Weight:             394.375
##########                DOCK_Rotatable_Bonds:                   8
##########                       Formal_Charge:          -0.0399999
##########                     HBond_Acceptors:                   9
##########                        HBond_Donors:                   1
##########                         Heavy_Atoms:                  28
##########                          Grid_Score:          -31.683245
##########                     Grid_vdw_energy:          -30.473198
##########                      Grid_es_energy:           -1.210047
##########           Internal_energy_repulsive:            7.492713

@<TRIPOS>MOLECULE
ZINC000175255939
 48 50 1 0 0
SMALL
USER_CHARGES


@<TRIPOS>ATOM
      1 C1        -13.2612    2.1100   50.3555 C.3     1  ZINC000175255939    0.0300
      2 O2        -13.3315    0.7867   50.9493 O.3     1  ZINC000175255939   -0.3600
      3 C3        -12.4161    0.4892   51.8848 C.2     1  ZINC000175255939    0.4600
      4 O4        -11.5667    1.2971   52.1774 O.2     1  ZINC000175255939   -0.5000
      5 C5        -12.4479   -0.8525   52.5702 C.3     1  ZINC000175255939   -0.0800
      6 H6        -13.4787   -1.1995   52.6420 H       1  ZINC000175255939    0.1100
      7 C7        -11.6263   -1.8582   51.7611 C.3     1  ZINC000175255939   -0.1200
      8 C8        -11.6587   -3.2203   52.4571 C.3     1  ZINC000175255939   -0.1100
      9 C9        -11.0656   -3.0898   53.8613 C.3     1  ZINC000175255939   -0.1200
     10 C10       -11.8872   -2.0842   54.6705 C.3     1  ZINC000175255939   -0.1000
     11 H11       -12.9179   -2.4312   54.7422 H       1  ZINC000175255939    0.1100
     12 C12       -11.3029   -1.9556   56.0537 C.2     1  ZINC000175255939    0.5100
     13 O13       -10.5884   -1.0140   56.3250 O.2     1  ZINC000175255939   -0.4800
     14 N14       -11.5746   -2.8871   56.9891 N.am    1  ZINC000175255939   -0.6300
     15 C15       -11.0353   -2.7695   58.2624 C.2     1  ZINC000175255939    0.2100
     16 C16       -11.1862   -1.7196   59.1183 C.2     1  ZINC000175255939   -0.2600
     17 C17       -10.4417   -2.1045   60.2635 C.2     1  ZINC000175255939    0.0900
     18 C18       -10.2636   -1.3248   61.5133 C.ar    1  ZINC000175255939   -0.0500
     19 C19       -11.3171   -0.5647   62.0181 C.ar    1  ZINC000175255939   -0.0600
     20 C20       -11.1489    0.1588   63.1798 C.ar    1  ZINC000175255939   -0.1300
     21 C21        -9.9310    0.1311   63.8462 C.ar    1  ZINC000175255939    0.1200
     22 O22        -9.7680    0.8449   64.9905 O.3     1  ZINC000175255939   -0.3200
     23 C23        -8.9015    1.9795   64.9295 C.3     1  ZINC000175255939    0.4100
     24 F24        -9.2322    2.8743   65.9529 F       1  ZINC000175255939   -0.2000
     25 F25        -7.5753    1.5623   65.0852 F       1  ZINC000175255939   -0.2000
     26 C26        -8.8798   -0.6254   63.3457 C.ar    1  ZINC000175255939   -0.1900
     27 C27        -9.0443   -1.3558   62.1878 C.ar    1  ZINC000175255939   -0.0500
     28 N28        -9.9424   -3.2877   59.9960 N.2     1  ZINC000175255939   -0.3600
     29 O29       -10.2670   -3.6700   58.8960 O.3     1  ZINC000175255939    0.1200
     30 C30       -11.8548   -0.7220   53.9746 C.3     1  ZINC000175255939   -0.0900
     31 H31       -14.0555    2.2196   49.6171 H       1  ZINC000175255939    0.1000
     32 H32       -13.3815    2.8641   51.1333 H       1  ZINC000175255939    0.0600
     33 H33       -12.2938    2.2395   49.8704 H       1  ZINC000175255939    0.0600
     34 H34       -12.0489   -1.9511   50.7607 H       1  ZINC000175255939    0.0800
     35 H35       -10.5956   -1.5111   51.6894 H       1  ZINC000175255939    0.0700
     36 H36       -12.6894   -3.5674   52.5287 H       1  ZINC000175255939    0.0700
     37 H37       -11.0734   -3.9368   51.8805 H       1  ZINC000175255939    0.0800
     38 H38       -11.0885   -4.0603   54.3571 H       1  ZINC000175255939    0.0700
     39 H39       -10.0348   -2.7429   53.7896 H       1  ZINC000175255939    0.0800
     40 H40       -12.1470   -3.6395   56.7725 H       1  ZINC000175255939    0.4300
     41 H41       -11.7424   -0.8072   58.9614 H       1  ZINC000175255939    0.1800
     42 H42       -12.2644   -0.5422   61.4997 H       1  ZINC000175255939    0.1400
     43 H43       -11.9648    0.7480   63.5713 H       1  ZINC000175255939    0.1400
     44 H44        -9.0163    2.4729   63.9643 H       1  ZINC000175255939    0.1900
     45 H45        -7.9336   -0.6451   63.8661 H       1  ZINC000175255939    0.1400
     46 H46        -8.2264   -1.9442   61.7992 H       1  ZINC000175255939    0.1400
     47 H47       -10.8241   -0.3750   53.9029 H       1  ZINC000175255939    0.0900
     48 H48       -12.4401   -0.0055   54.5510 H       1  ZINC000175255939    0.0800
@<TRIPOS>BOND
     1     1     2    1
     2     1    31    1
     3     1    32    1
     4     1    33    1
     5     2     3    1
     6     3     4    2
     7     3     5    1
     8     5     6    1
     9     5    30    1
    10     5     7    1
    11     7     8    1
    12     7    34    1
    13     7    35    1
    14     8     9    1
    15     8    36    1
    16     8    37    1
    17     9    10    1
    18     9    38    1
    19     9    39    1
    20    10    11    1
    21    10    12    1
    22    10    30    1
    23    12    13    2
    24    12    14   am
    25    14    15    1
    26    14    40    1
    27    15    29    1
    28    15    16    2
    29    16    17    1
    30    16    41    1
    31    17    18    1
    32    17    28    2
    33    18    27   ar
    34    18    19   ar
    35    19    20   ar
    36    19    42    1
    37    20    21   ar
    38    20    43    1
    39    21    22    1
    40    21    26   ar
    41    22    23    1
    42    23    24    1
    43    23    25    1
    44    23    44    1
    45    26    27   ar
    46    26    45    1
    47    27    46    1
    48    28    29    1
    49    30    47    1
    50    30    48    1
@<TRIPOS>SUBSTRUCTURE
     1 ZINC000175255939        1 TEMP              0 ****  ****    0 ROOT


##########                                Name:    ZINC000949401225
##########                DOCK_Rotatable_Bonds:                   7
##########                         Heavy_Atoms:                  24
##########                    Molecular_Weight:             332.403
##########                DOCK_Rotatable_Bonds:                   7
##########                       Formal_Charge:                0.03
##########                     HBond_Acceptors:                   7
##########                        HBond_Donors:                   1
##########                         Heavy_Atoms:                  24
##########                          Grid_Score:          -31.666271
##########                     Grid_vdw_energy:          -31.001328
##########                      Grid_es_energy:           -0.664944
##########           Internal_energy_repulsive:            9.165912

@<TRIPOS>MOLECULE
ZINC000949401225
 48 50 1 0 0
SMALL
USER_CHARGES


@<TRIPOS>ATOM
      1 C1        -14.1510    2.0070   49.6179 C.3     1  ZINC000949401225    0.0700
      2 N2        -13.5472    1.0263   50.5232 N.pl3   1  ZINC000949401225   -0.4500
      3 C3        -12.3831    1.2123   51.2102 C.2     1  ZINC000949401225   -0.0100
      4 C4        -12.1292    0.1125   51.9413 C.2     1  ZINC000949401225   -0.1700
      5 C5        -13.2297   -0.8209   51.6780 C.2     1  ZINC000949401225   -0.2400
      6 C6        -13.4035   -2.1678   52.2478 C.2     1  ZINC000949401225    0.5900
      7 O7        -14.3577   -2.8476   51.9214 O.2     1  ZINC000949401225   -0.5500
      8 N8        -12.5052   -2.6468   53.1309 N.am    1  ZINC000949401225   -0.7300
      9 C9        -12.6770   -3.9873   53.6963 C.3     1  ZINC000949401225    0.1200
     10 C10       -13.4570   -3.8911   55.0091 C.3     1  ZINC000949401225    0.1200
     11 H11       -14.2255   -3.1184   54.9868 H       1  ZINC000949401225    0.1000
     12 C12       -13.9676   -5.2464   55.5175 C.3     1  ZINC000949401225   -0.1500
     13 C13       -13.5780   -4.6772   56.8888 C.3     1  ZINC000949401225    0.1000
     14 N14       -12.5953   -3.8259   56.1990 N.am    1  ZINC000949401225   -0.6400
     15 C15       -11.4217   -3.2448   56.5175 C.2     1  ZINC000949401225    0.5500
     16 O16       -10.8321   -2.5777   55.6940 O.2     1  ZINC000949401225   -0.5200
     17 C17       -10.8422   -3.4238   57.8971 C.3     1  ZINC000949401225   -0.1400
     18 C18       -10.1291   -2.1384   58.3214 C.3     1  ZINC000949401225    0.1500
     19 H19        -9.3509   -1.8841   57.6016 H       1  ZINC000949401225    0.0900
     20 C20       -11.1435   -0.9797   58.4436 C.3     1  ZINC000949401225   -0.1200
     21 C21       -10.5737   -0.1869   59.6427 C.3     1  ZINC000949401225   -0.1600
     22 C22        -9.7818   -1.2128   60.4231 C.2     1  ZINC000949401225    0.5200
     23 O23        -9.4089   -1.0775   61.5692 O.2     1  ZINC000949401225   -0.5300
     24 N24        -9.5500   -2.2972   59.6606 N.am    1  ZINC000949401225   -0.6200
     25 C25        -8.8170   -3.4830   60.1109 C.3     1  ZINC000949401225    0.0900
     26 C26       -14.0649   -0.1855   50.8009 C.2     1  ZINC000949401225    0.0800
     27 H27       -14.8242    2.6542   50.1800 H       1  ZINC000949401225    0.0800
     28 H28       -13.3666    2.6093   49.1594 H       1  ZINC000949401225    0.0900
     29 H29       -14.7111    1.4874   48.8405 H       1  ZINC000949401225    0.0900
     30 H30       -11.7663    2.0981   51.1729 H       1  ZINC000949401225    0.1700
     31 H31       -11.2832   -0.0511   52.5924 H       1  ZINC000949401225    0.1500
     32 H32       -11.7448   -2.1042   53.3920 H       1  ZINC000949401225    0.4000
     33 H33       -13.2271   -4.6111   52.9918 H       1  ZINC000949401225    0.0700
     34 H34       -11.6990   -4.4297   53.8864 H       1  ZINC000949401225    0.0900
     35 H35       -15.0386   -5.3988   55.3848 H       1  ZINC000949401225    0.1000
     36 H36       -13.3662   -6.0982   55.1999 H       1  ZINC000949401225    0.1000
     37 H37       -14.3785   -4.1136   57.3681 H       1  ZINC000949401225    0.0900
     38 H38       -13.1251   -5.4143   57.5519 H       1  ZINC000949401225    0.0800
     39 H39       -11.6436   -3.6444   58.6021 H       1  ZINC000949401225    0.1000
     40 H40       -10.1294   -4.2484   57.8874 H       1  ZINC000949401225    0.1000
     41 H41       -11.1496   -0.3698   57.5402 H       1  ZINC000949401225    0.1000
     42 H42       -12.1418   -1.3570   58.6644 H       1  ZINC000949401225    0.0800
     43 H43        -9.9217    0.6144   59.2950 H       1  ZINC000949401225    0.1100
     44 H44       -11.3823    0.2155   60.2528 H       1  ZINC000949401225    0.1000
     45 H45        -8.5719   -3.3790   61.1679 H       1  ZINC000949401225    0.0800
     46 H46        -9.4357   -4.3689   59.9669 H       1  ZINC000949401225    0.0600
     47 H47        -7.8984   -3.5835   59.5330 H       1  ZINC000949401225    0.0600
     48 H48       -14.9804   -0.5895   50.3948 H       1  ZINC000949401225    0.1800
@<TRIPOS>BOND
     1     1     2    1
     2     1    27    1
     3     1    28    1
     4     1    29    1
     5     2    26    1
     6     2     3    1
     7     3     4    2
     8     3    30    1
     9     4     5    1
    10     4    31    1
    11     5     6    1
    12     5    26    2
    13     6     7    2
    14     6     8   am
    15     8     9    1
    16     8    32    1
    17     9    10    1
    18     9    33    1
    19     9    34    1
    20    10    11    1
    21    10    14    1
    22    10    12    1
    23    12    13    1
    24    12    35    1
    25    12    36    1
    26    13    14    1
    27    13    37    1
    28    13    38    1
    29    14    15   am
    30    15    16    2
    31    15    17    1
    32    17    18    1
    33    17    39    1
    34    17    40    1
    35    18    19    1
    36    18    24    1
    37    18    20    1
    38    20    21    1
    39    20    41    1
    40    20    42    1
    41    21    22    1
    42    21    43    1
    43    21    44    1
    44    22    23    2
    45    22    24   am
    46    24    25    1
    47    25    45    1
    48    25    46    1
    49    25    47    1
    50    26    48    1
@<TRIPOS>SUBSTRUCTURE
     1 ZINC000949401225        1 TEMP              0 ****  ****    0 ROOT


##########                                Name:    ZINC000965273005
##########                DOCK_Rotatable_Bonds:                   7
##########                         Heavy_Atoms:                  27
##########                    Molecular_Weight:             368.436
##########                DOCK_Rotatable_Bonds:                   7
##########                       Formal_Charge:           0.0100003
##########                     HBond_Acceptors:                   7
##########                        HBond_Donors:                   2
##########                         Heavy_Atoms:                  27
##########                          Grid_Score:          -31.663391
##########                     Grid_vdw_energy:          -30.068144
##########                      Grid_es_energy:           -1.595248
##########           Internal_energy_repulsive:           10.011632

@<TRIPOS>MOLECULE
ZINC000965273005
 51 54 1 0 0
SMALL
USER_CHARGES


@<TRIPOS>ATOM
      1 C1        -11.2510    1.9855   60.3985 C.3     1  ZINC000965273005   -0.1200
      2 C2        -12.4166    1.3014   61.0652 C.ar    1  ZINC000965273005   -0.0300
      3 C3        -13.6849    1.8324   60.9552 C.ar    1  ZINC000965273005   -0.1200
      4 C4        -14.7562    1.2055   61.5668 C.ar    1  ZINC000965273005   -0.0900
      5 C5        -14.5635    0.0431   62.2916 C.ar    1  ZINC000965273005   -0.1300
      6 C6        -13.3000   -0.4986   62.4095 C.ar    1  ZINC000965273005   -0.0900
      7 C7        -12.2160    0.1258   61.7908 C.ar    1  ZINC000965273005   -0.1300
      8 C8        -10.8593   -0.4490   61.9129 C.2     1  ZINC000965273005    0.5800
      9 O9        -10.0371    0.0818   62.6338 O.2     1  ZINC000965273005   -0.5200
     10 N10       -10.5343   -1.5614   61.2250 N.am    1  ZINC000965273005   -0.6100
     11 C11       -11.4277   -2.3000   60.3141 C.3     1  ZINC000965273005    0.0900
     12 C12       -10.4771   -3.0496   59.3477 C.3     1  ZINC000965273005    0.1500
     13 H13       -10.9600   -3.9345   58.9329 H       1  ZINC000965273005    0.1200
     14 N14       -10.0067   -2.1628   58.2807 N.am    1  ZINC000965273005   -0.7100
     15 C15       -10.8138   -1.8721   57.2412 C.2     1  ZINC000965273005    0.6000
     16 O16       -11.9321   -2.3472   57.1882 O.2     1  ZINC000965273005   -0.5400
     17 C17       -10.3411   -0.9784   56.1683 C.2     1  ZINC000965273005   -0.2800
     18 C18        -9.4996    0.1058   56.3163 C.2     1  ZINC000965273005    0.1000
     19 N19        -9.3203    0.6444   55.0996 N.pl3   1  ZINC000965273005   -0.3600
     20 C20        -8.4958    1.8165   54.7954 C.3     1  ZINC000965273005    0.1000
     21 N21       -10.0532   -0.1030   54.1710 N.2     1  ZINC000965273005   -0.3000
     22 C22       -10.6597   -1.0747   54.7951 C.2     1  ZINC000965273005    0.1700
     23 C23       -11.5521   -2.1120   54.1639 C.3     1  ZINC000965273005   -0.0800
     24 C24       -10.9729   -2.9355   53.0117 C.3     1  ZINC000965273005   -0.1700
     25 C25       -11.1894   -3.5825   54.3811 C.3     1  ZINC000965273005   -0.1600
     26 C26        -9.3150   -3.4436   60.2973 C.3     1  ZINC000965273005    0.0900
     27 H27        -9.5555   -4.3559   60.8433 H       1  ZINC000965273005    0.0900
     28 O28        -8.0965   -3.6000   59.5674 O.3     1  ZINC000965273005   -0.5500
     29 C29        -9.2282   -2.2357   61.2536 C.3     1  ZINC000965273005    0.0600
     30 H30       -11.0718    1.5310   59.4242 H       1  ZINC000965273005    0.0800
     31 H31       -11.4762    3.0441   60.2697 H       1  ZINC000965273005    0.0700
     32 H32       -10.3619    1.8762   61.0195 H       1  ZINC000965273005    0.0700
     33 H33       -13.8420    2.7396   60.3907 H       1  ZINC000965273005    0.1300
     34 H34       -15.7471    1.6257   61.4780 H       1  ZINC000965273005    0.1300
     35 H35       -15.4039   -0.4414   62.7665 H       1  ZINC000965273005    0.1300
     36 H36       -13.1508   -1.4060   62.9760 H       1  ZINC000965273005    0.1300
     37 H37       -12.0373   -3.0098   60.8733 H       1  ZINC000965273005    0.0900
     38 H38       -12.0621   -1.6074   59.7608 H       1  ZINC000965273005    0.0900
     39 H39        -9.1143   -1.7849   58.3223 H       1  ZINC000965273005    0.4000
     40 H40        -9.0657    0.4568   57.2410 H       1  ZINC000965273005    0.1800
     41 H41        -7.4786    1.4966   54.5694 H       1  ZINC000965273005    0.0800
     42 H42        -8.9118    2.3398   53.9344 H       1  ZINC000965273005    0.1000
     43 H43        -8.4836    2.4854   55.6560 H       1  ZINC000965273005    0.0900
     44 H44       -12.6107   -1.8564   54.1177 H       1  ZINC000965273005    0.1400
     45 H45       -11.6503   -3.2215   52.2071 H       1  ZINC000965273005    0.1000
     46 H46        -9.9463   -2.7269   52.7104 H       1  ZINC000965273005    0.1000
     47 H47       -10.3054   -3.7996   54.9807 H       1  ZINC000965273005    0.0900
     48 H48       -12.0094   -4.2942   54.4775 H       1  ZINC000965273005    0.1000
     49 H49        -7.3192   -3.2433   60.0186 H       1  ZINC000965273005    0.3900
     50 H50        -8.4461   -1.5539   60.9195 H       1  ZINC000965273005    0.0800
     51 H51        -9.0159   -2.5790   62.2662 H       1  ZINC000965273005    0.0800
@<TRIPOS>BOND
     1     1     2    1
     2     1    30    1
     3     1    31    1
     4     1    32    1
     5     2     7   ar
     6     2     3   ar
     7     3     4   ar
     8     3    33    1
     9     4     5   ar
    10     4    34    1
    11     5     6   ar
    12     5    35    1
    13     6     7   ar
    14     6    36    1
    15     7     8    1
    16     8     9    2
    17     8    10   am
    18    10    29    1
    19    10    11    1
    20    11    12    1
    21    11    37    1
    22    11    38    1
    23    12    13    1
    24    12    14    1
    25    12    26    1
    26    14    15   am
    27    14    39    1
    28    15    16    2
    29    15    17    1
    30    17    22    1
    31    17    18    2
    32    18    19    1
    33    18    40    1
    34    19    20    1
    35    19    21    1
    36    20    41    1
    37    20    42    1
    38    20    43    1
    39    21    22    2
    40    22    23    1
    41    23    25    1
    42    23    24    1
    43    23    44    1
    44    24    25    1
    45    24    45    1
    46    24    46    1
    47    25    47    1
    48    25    48    1
    49    26    27    1
    50    26    28    1
    51    26    29    1
    52    28    49    1
    53    29    50    1
    54    29    51    1
@<TRIPOS>SUBSTRUCTURE
     1 ZINC000965273005        1 TEMP              0 ****  ****    0 ROOT


##########                                Name:    ZINC000541315701
##########                DOCK_Rotatable_Bonds:                   4
##########                         Heavy_Atoms:                  25
##########                    Molecular_Weight:             422.709
##########                DOCK_Rotatable_Bonds:                   4
##########                       Formal_Charge:           0.0300003
##########                     HBond_Acceptors:                   6
##########                        HBond_Donors:                   0
##########                         Heavy_Atoms:                  25
##########                          Grid_Score:          -31.657228
##########                     Grid_vdw_energy:          -30.951361
##########                      Grid_es_energy:           -0.705867
##########           Internal_energy_repulsive:           27.567463

@<TRIPOS>MOLECULE
ZINC000541315701
 42 44 1 0 0
SMALL
USER_CHARGES


@<TRIPOS>ATOM
      1 C1         -9.4028   -0.1743   57.6415 C.3     1  ZINC000541315701    0.0800
      2 N2        -10.4413   -0.3763   58.6549 N.am    1  ZINC000541315701   -0.5700
      3 C3        -11.4908   -1.1803   58.3934 C.2     1  ZINC000541315701    0.5400
      4 O4        -12.3505   -1.3475   59.2323 O.2     1  ZINC000541315701   -0.5000
      5 C5        -11.5960   -1.8718   57.0585 C.3     1  ZINC000541315701   -0.1100
      6 H6        -11.3816   -1.1790   56.2447 H       1  ZINC000541315701    0.1300
      7 C7        -10.6624   -3.1028   56.9978 C.3     1  ZINC000541315701   -0.1500
      8 C8        -11.5421   -4.2569   57.4255 C.2     1  ZINC000541315701    0.5200
      9 O9        -11.1380   -5.3440   57.7804 O.2     1  ZINC000541315701   -0.5200
     10 N10       -12.8367   -3.9022   57.3553 N.am    1  ZINC000541315701   -0.6100
     11 C11       -13.9548   -4.7808   57.7077 C.3     1  ZINC000541315701    0.0900
     12 C12       -12.9865   -2.5207   56.8801 C.3     1  ZINC000541315701    0.1900
     13 H13       -13.7288   -1.9939   57.4798 H       1  ZINC000541315701    0.1100
     14 C14       -13.3875   -2.5095   55.4275 C.ar    1  ZINC000541315701   -0.0900
     15 C15       -14.7254   -2.5056   55.0801 C.ar    1  ZINC000541315701   -0.1000
     16 C16       -15.0942   -2.4948   53.7476 C.ar    1  ZINC000541315701   -0.1000
     17 C17       -14.1253   -2.4884   52.7623 C.ar    1  ZINC000541315701   -0.1000
     18 C18       -12.7858   -2.4922   53.1094 C.ar    1  ZINC000541315701   -0.0300
     19 Cl19      -11.5681   -2.4834   51.8722 Cl      1  ZINC000541315701   -0.0600
     20 C20       -12.4175   -2.4972   54.4428 C.ar    1  ZINC000541315701   -0.0900
     21 C21       -10.3439    0.2635   59.8900 C.ar    1  ZINC000541315701    0.3800
     22 N22       -10.7178    1.5277   60.0049 N.ar    1  ZINC000541315701   -0.4700
     23 C23       -10.6424    2.1702   61.1548 C.ar    1  ZINC000541315701    0.1300
     24 C24       -10.1668    1.5409   62.2880 C.ar    1  ZINC000541315701   -0.1600
     25 C25        -9.7640    0.2145   62.2107 C.ar    1  ZINC000541315701   -0.0400
     26 C26        -9.8599   -0.4345   60.9918 C.ar    1  ZINC000541315701   -0.1300
     27 Br27       -9.3275   -2.2412   60.8235 Br      1  ZINC000541315701   -0.0200
     28 H28        -9.8541   -0.1955   56.6496 H       1  ZINC000541315701    0.0900
     29 H29        -8.9218    0.7907   57.8014 H       1  ZINC000541315701    0.0800
     30 H30        -8.6597   -0.9679   57.7197 H       1  ZINC000541315701    0.0700
     31 H31       -10.2990   -3.2563   55.9817 H       1  ZINC000541315701    0.1200
     32 H32        -9.8277   -2.9830   57.6886 H       1  ZINC000541315701    0.1100
     33 H33       -13.5693   -5.7485   58.0285 H       1  ZINC000541315701    0.0900
     34 H34       -14.5287   -4.3313   58.5182 H       1  ZINC000541315701    0.0700
     35 H35       -14.5985   -4.9161   56.8384 H       1  ZINC000541315701    0.0600
     36 H36       -15.4830   -2.5114   55.8499 H       1  ZINC000541315701    0.1300
     37 H37       -16.1397   -2.4919   53.4768 H       1  ZINC000541315701    0.1400
     38 H38       -14.4135   -2.4807   51.7214 H       1  ZINC000541315701    0.1400
     39 H39       -11.3722   -2.5002   54.7143 H       1  ZINC000541315701    0.1400
     40 H40       -10.9565    3.2021   61.2103 H       1  ZINC000541315701    0.1700
     41 H41       -10.1086    2.0751   63.2249 H       1  ZINC000541315701    0.1500
     42 H42        -9.3885   -0.3003   63.0826 H       1  ZINC000541315701    0.1500
@<TRIPOS>BOND
     1     1     2    1
     2     1    28    1
     3     1    29    1
     4     1    30    1
     5     2     3   am
     6     2    21    1
     7     3     4    2
     8     3     5    1
     9     5     6    1
    10     5    12    1
    11     5     7    1
    12     7     8    1
    13     7    31    1
    14     7    32    1
    15     8     9    2
    16     8    10   am
    17    10    11    1
    18    10    12    1
    19    11    33    1
    20    11    34    1
    21    11    35    1
    22    12    13    1
    23    12    14    1
    24    14    20   ar
    25    14    15   ar
    26    15    16   ar
    27    15    36    1
    28    16    17   ar
    29    16    37    1
    30    17    18   ar
    31    17    38    1
    32    18    19    1
    33    18    20   ar
    34    20    39    1
    35    21    26   ar
    36    21    22   ar
    37    22    23   ar
    38    23    24   ar
    39    23    40    1
    40    24    25   ar
    41    24    41    1
    42    25    26   ar
    43    25    42    1
    44    26    27    1
@<TRIPOS>SUBSTRUCTURE
     1 ZINC000541315701        1 TEMP              0 ****  ****    0 ROOT


##########                                Name:    ZINC001074839487
##########                DOCK_Rotatable_Bonds:                   7
##########                         Heavy_Atoms:                  25
##########                    Molecular_Weight:             344.454
##########                DOCK_Rotatable_Bonds:                   7
##########                       Formal_Charge:          -0.0500005
##########                     HBond_Acceptors:                   5
##########                        HBond_Donors:                   1
##########                         Heavy_Atoms:                  25
##########                          Grid_Score:          -31.657150
##########                     Grid_vdw_energy:          -31.639641
##########                      Grid_es_energy:           -0.017509
##########           Internal_energy_repulsive:           91.726295

@<TRIPOS>MOLECULE
ZINC001074839487
 53 55 1 0 0
SMALL
USER_CHARGES


@<TRIPOS>ATOM
      1 C1         -8.9400   -2.3535   60.3963 C.3     1  ZINC001074839487   -0.1500
      2 C2        -10.1494   -2.2065   59.4707 C.3     1  ZINC001074839487   -0.1300
      3 C3        -11.0087   -1.0297   59.9373 C.3     1  ZINC001074839487   -0.1100
      4 C4        -12.0393   -1.5226   60.9550 C.3     1  ZINC001074839487   -0.1400
      5 C5        -13.3642   -1.7305   60.2677 C.2     1  ZINC001074839487    0.5100
      6 O6        -14.3936   -1.4181   60.8279 O.2     1  ZINC001074839487   -0.5400
      7 N7        -13.4053   -2.2636   59.0306 N.am    1  ZINC001074839487   -0.7300
      8 C8        -14.6934   -2.4674   58.3632 C.3     1  ZINC001074839487    0.1400
      9 H9        -15.4932   -2.0710   58.9888 H       1  ZINC001074839487    0.0900
     10 C10       -14.6909   -1.7397   57.0168 C.3     1  ZINC001074839487   -0.1500
     11 C11       -13.5444   -2.2753   56.1536 C.3     1  ZINC001074839487    0.0700
     12 N12       -13.6725   -3.7353   56.0501 N.am    1  ZINC001074839487   -0.6000
     13 C13       -13.6965   -4.3389   54.8452 C.2     1  ZINC001074839487    0.5600
     14 O14       -13.8027   -5.5476   54.7730 O.2     1  ZINC001074839487   -0.5200
     15 C15       -13.5933   -3.5309   53.6115 C.ar    1  ZINC001074839487   -0.1300
     16 C16       -12.3420   -3.1434   53.1302 C.ar    1  ZINC001074839487   -0.1000
     17 C17       -12.2514   -2.3890   51.9778 C.ar    1  ZINC001074839487   -0.1000
     18 C18       -13.3965   -2.0174   51.3013 C.ar    1  ZINC001074839487   -0.1100
     19 C19       -13.6232   -1.2125   50.0424 C.3     1  ZINC001074839487    0.0900
     20 O20       -15.0051   -0.8112   50.0726 O.3     1  ZINC001074839487   -0.3600
     21 C21       -15.6753   -1.8412   50.8219 C.3     1  ZINC001074839487    0.0900
     22 C22       -14.6440   -2.3994   51.7749 C.ar    1  ZINC001074839487   -0.1400
     23 C23       -14.7476   -3.1567   52.9198 C.ar    1  ZINC001074839487   -0.0400
     24 C24       -13.7747   -4.5249   57.2850 C.3     1  ZINC001074839487    0.1500
     25 H25       -12.8392   -4.4572   57.8403 H       1  ZINC001074839487    0.0700
     26 C26       -14.0633   -5.9865   56.9369 C.3     1  ZINC001074839487   -0.1400
     27 C27       -14.9186   -3.9640   58.1356 C.3     1  ZINC001074839487   -0.1400
     28 H28        -8.3484   -1.4385   60.3691 H       1  ZINC001074839487    0.0500
     29 H29        -8.3279   -3.1920   60.0639 H       1  ZINC001074839487    0.0500
     30 H30        -9.2821   -2.5349   61.4152 H       1  ZINC001074839487    0.0500
     31 H31        -9.8074   -2.0252   58.4518 H       1  ZINC001074839487    0.0600
     32 H32       -10.7411   -3.1216   59.4979 H       1  ZINC001074839487    0.0600
     33 H33       -10.3720   -0.2761   60.4008 H       1  ZINC001074839487    0.0700
     34 H34       -11.5234   -0.5937   59.0809 H       1  ZINC001074839487    0.0700
     35 H35       -11.7019   -2.4649   61.3864 H       1  ZINC001074839487    0.0900
     36 H36       -12.1526   -0.7809   61.7456 H       1  ZINC001074839487    0.0900
     37 H37       -12.5820   -2.5124   58.5822 H       1  ZINC001074839487    0.4000
     38 H38       -15.6398   -1.9114   56.5088 H       1  ZINC001074839487    0.0800
     39 H39       -14.5539   -0.6709   57.1813 H       1  ZINC001074839487    0.0800
     40 H40       -13.5980   -1.8324   55.1591 H       1  ZINC001074839487    0.1200
     41 H41       -12.5901   -2.0242   56.6167 H       1  ZINC001074839487    0.0700
     42 H42       -11.4457   -3.4340   53.6584 H       1  ZINC001074839487    0.1500
     43 H43       -11.2834   -2.0890   51.6045 H       1  ZINC001074839487    0.1400
     44 H44       -12.9772   -0.3346   50.0365 H       1  ZINC001074839487    0.1000
     45 H45       -13.4300   -1.8276   49.1635 H       1  ZINC001074839487    0.0800
     46 H46       -16.5107   -1.4171   51.3790 H       1  ZINC001074839487    0.1000
     47 H47       -16.0291   -2.6238   50.1509 H       1  ZINC001074839487    0.0800
     48 H48       -15.7187   -3.4573   53.2844 H       1  ZINC001074839487    0.1400
     49 H49       -13.2021   -6.4147   56.4239 H       1  ZINC001074839487    0.0800
     50 H50       -14.2566   -6.5465   57.8518 H       1  ZINC001074839487    0.0500
     51 H51       -14.9367   -6.0396   56.2869 H       1  ZINC001074839487    0.0700
     52 H52       -14.9436   -4.4783   59.0963 H       1  ZINC001074839487    0.0900
     53 H53       -15.8653   -4.1147   57.6169 H       1  ZINC001074839487    0.0900
@<TRIPOS>BOND
     1     1     2    1
     2     1    28    1
     3     1    29    1
     4     1    30    1
     5     2     3    1
     6     2    31    1
     7     2    32    1
     8     3     4    1
     9     3    33    1
    10     3    34    1
    11     4     5    1
    12     4    35    1
    13     4    36    1
    14     5     6    2
    15     5     7   am
    16     7     8    1
    17     7    37    1
    18     8     9    1
    19     8    27    1
    20     8    10    1
    21    10    11    1
    22    10    38    1
    23    10    39    1
    24    11    12    1
    25    11    40    1
    26    11    41    1
    27    12    13   am
    28    12    24    1
    29    13    14    2
    30    13    15    1
    31    15    23   ar
    32    15    16   ar
    33    16    17   ar
    34    16    42    1
    35    17    18   ar
    36    17    43    1
    37    18    22   ar
    38    18    19    1
    39    19    20    1
    40    19    44    1
    41    19    45    1
    42    20    21    1
    43    21    22    1
    44    21    46    1
    45    21    47    1
    46    22    23   ar
    47    23    48    1
    48    24    25    1
    49    24    26    1
    50    24    27    1
    51    26    49    1
    52    26    50    1
    53    26    51    1
    54    27    52    1
    55    27    53    1
@<TRIPOS>SUBSTRUCTURE
     1 ZINC001074839487        1 TEMP              0 ****  ****    0 ROOT


##########                                Name:    ZINC000572148596
##########                DOCK_Rotatable_Bonds:                   4
##########                         Heavy_Atoms:                  26
##########                    Molecular_Weight:             371.463
##########                DOCK_Rotatable_Bonds:                   4
##########                       Formal_Charge:          -0.0199999
##########                     HBond_Acceptors:                   8
##########                        HBond_Donors:                   0
##########                         Heavy_Atoms:                  26
##########                          Grid_Score:          -31.628353
##########                     Grid_vdw_energy:          -30.262506
##########                      Grid_es_energy:           -1.365847
##########           Internal_energy_repulsive:            7.007490

@<TRIPOS>MOLECULE
ZINC000572148596
 47 50 1 0 0
SMALL
USER_CHARGES


@<TRIPOS>ATOM
      1 C1         -8.8209    4.1989   50.3663 C.3     1  ZINC000572148596   -0.1400
      2 C2         -7.8671    3.8785   51.5190 C.3     1  ZINC000572148596    0.0800
      3 H3         -7.2229    4.7375   51.7070 H       1  ZINC000572148596    0.1200
      4 C4         -8.6646    3.5677   52.7593 C.2     1  ZINC000572148596    0.1800
      5 N5         -9.7538    4.1666   53.1417 N.2     1  ZINC000572148596   -0.3500
      6 O6        -10.1588    3.6892   54.1804 O.3     1  ZINC000572148596    0.0900
      7 C7         -9.3377    2.7037   54.5758 C.2     1  ZINC000572148596    0.2300
      8 C8         -9.4778    1.8717   55.7872 C.ar    1  ZINC000572148596   -0.1200
      9 C9        -10.5809    2.0340   56.6378 C.ar    1  ZINC000572148596   -0.0100
     10 C10       -10.6701    1.2405   57.7506 C.ar    1  ZINC000572148596   -0.1900
     11 C11        -9.6713    0.3031   58.0035 C.ar    1  ZINC000572148596    0.3400
     12 N12        -9.7587   -0.5020   59.1287 N.3     1  ZINC000572148596   -0.4700
     13 C13       -10.8292   -1.4987   58.9816 C.3     1  ZINC000572148596    0.0300
     14 C14       -10.8515   -2.4021   60.2174 C.3     1  ZINC000572148596    0.0900
     15 H15       -11.6798   -3.1063   60.1387 H       1  ZINC000572148596    0.1100
     16 C16        -9.5330   -3.1728   60.3108 C.3     1  ZINC000572148596   -0.1800
     17 O17       -11.0186   -1.5968   61.3874 O.3     1  ZINC000572148596   -0.3700
     18 C18        -9.9930   -0.6155   61.5623 C.3     1  ZINC000572148596    0.0800
     19 H19        -9.0285   -1.1121   61.6683 H       1  ZINC000572148596    0.0700
     20 C20       -10.2838    0.2091   62.8178 C.3     1  ZINC000572148596   -0.1400
     21 C21        -9.9621    0.3059   60.3400 C.3     1  ZINC000572148596    0.0300
     22 N22        -8.6386    0.1699   57.1829 N.ar    1  ZINC000572148596   -0.5200
     23 C23        -8.5175    0.9085   56.0993 C.ar    1  ZINC000572148596    0.1900
     24 N24        -8.3825    2.6192   53.6656 N.2     1  ZINC000572148596   -0.4700
     25 C25        -7.0206    2.6863   51.1541 C.2     1  ZINC000572148596    0.0400
     26 N26        -7.4069    1.7069   50.4082 N.2     1  ZINC000572148596   -0.4500
     27 C27        -6.5381    0.7410   50.1871 C.2     1  ZINC000572148596    0.0400
     28 C28        -5.3529    0.9154   50.7795 C.2     1  ZINC000572148596   -0.2500
     29 S29        -5.4070    2.4393   51.6624 S.3     1  ZINC000572148596    0.1400
     30 H30        -9.4650    3.3399   50.1782 H       1  ZINC000572148596    0.0800
     31 H31        -9.4330    5.0612   50.6302 H       1  ZINC000572148596    0.0700
     32 H32        -8.2440    4.4237   49.4692 H       1  ZINC000572148596    0.0800
     33 H33       -11.3426    2.7682   56.4206 H       1  ZINC000572148596    0.1500
     34 H34       -11.5069    1.3410   58.4259 H       1  ZINC000572148596    0.1500
     35 H35       -11.7888   -0.9908   58.8847 H       1  ZINC000572148596    0.0600
     36 H36       -10.6448   -2.1024   58.0929 H       1  ZINC000572148596    0.1000
     37 H37        -8.7052   -2.4682   60.3909 H       1  ZINC000572148596    0.0700
     38 H38        -9.5494   -3.8157   61.1908 H       1  ZINC000572148596    0.0600
     39 H39        -9.4051   -3.7835   59.4169 H       1  ZINC000572148596    0.0700
     40 H40       -10.3090   -0.4484   63.6867 H       1  ZINC000572148596    0.0700
     41 H41        -9.5018    0.9568   62.9505 H       1  ZINC000572148596    0.0700
     42 H42       -11.2477    0.7066   62.7106 H       1  ZINC000572148596    0.0600
     43 H43        -9.1448    1.0197   60.4430 H       1  ZINC000572148596    0.1000
     44 H44       -10.9078    0.8427   60.2650 H       1  ZINC000572148596    0.0600
     45 H45        -7.6634    0.7743   55.4520 H       1  ZINC000572148596    0.1700
     46 H46        -6.7653   -0.1210   49.5775 H       1  ZINC000572148596    0.1800
     47 H47        -4.5096    0.2430   50.7238 H       1  ZINC000572148596    0.1800
@<TRIPOS>BOND
     1     1     2    1
     2     1    30    1
     3     1    31    1
     4     1    32    1
     5     2     3    1
     6     2     4    1
     7     2    25    1
     8     4    24    1
     9     4     5    2
    10     5     6    1
    11     6     7    1
    12     7     8    1
    13     7    24    2
    14     8    23   ar
    15     8     9   ar
    16     9    10   ar
    17     9    33    1
    18    10    11   ar
    19    10    34    1
    20    11    12    1
    21    11    22   ar
    22    12    21    1
    23    12    13    1
    24    13    14    1
    25    13    35    1
    26    13    36    1
    27    14    15    1
    28    14    16    1
    29    14    17    1
    30    16    37    1
    31    16    38    1
    32    16    39    1
    33    17    18    1
    34    18    19    1
    35    18    20    1
    36    18    21    1
    37    20    40    1
    38    20    41    1
    39    20    42    1
    40    21    43    1
    41    21    44    1
    42    22    23   ar
    43    23    45    1
    44    25    29    1
    45    25    26    2
    46    26    27    1
    47    27    28    2
    48    27    46    1
    49    28    29    1
    50    28    47    1
@<TRIPOS>SUBSTRUCTURE
     1 ZINC000572148596        1 TEMP              0 ****  ****    0 ROOT


##########                                Name:    ZINC001091652821
##########                DOCK_Rotatable_Bonds:                   4
##########                         Heavy_Atoms:                  24
##########                    Molecular_Weight:             345.465
##########                DOCK_Rotatable_Bonds:                   4
##########                       Formal_Charge:          -0.0199997
##########                     HBond_Acceptors:                   6
##########                        HBond_Donors:                   0
##########                         Heavy_Atoms:                  24
##########                          Grid_Score:          -31.626087
##########                     Grid_vdw_energy:          -30.639833
##########                      Grid_es_energy:           -0.986254
##########           Internal_energy_repulsive:            3.578900

@<TRIPOS>MOLECULE
ZINC001091652821
 47 50 1 0 0
SMALL
USER_CHARGES


@<TRIPOS>ATOM
      1 C1        -14.6577   -3.1407   53.4530 C.3     1  ZINC001091652821   -0.1000
      2 C2        -13.2765   -3.3473   54.0191 C.2     1  ZINC001091652821   -0.1200
      3 C3        -12.1753   -3.3024   53.2603 C.2     1  ZINC001091652821   -0.2400
      4 S4        -10.7763   -3.5748   54.1981 S.3     1  ZINC001091652821    0.2100
      5 C5        -11.7339   -3.7531   55.6620 C.2     1  ZINC001091652821   -0.2700
      6 C6        -11.1999   -4.0267   56.9994 C.2     1  ZINC001091652821    0.6100
      7 O7        -11.1819   -5.1664   57.4260 O.2     1  ZINC001091652821   -0.5200
      8 N8        -10.7289   -3.0162   57.7567 N.am    1  ZINC001091652821   -0.6200
      9 C9        -10.6856   -1.5904   57.3930 C.3     1  ZINC001091652821    0.0900
     10 C10       -10.8494   -0.8029   58.7034 C.3     1  ZINC001091652821   -0.0900
     11 H11       -10.2126    0.0813   58.7315 H       1  ZINC001091652821    0.1100
     12 C12       -12.3391   -0.4503   58.8970 C.3     1  ZINC001091652821    0.0400
     13 N13       -12.6100   -0.7335   60.3297 N.3     1  ZINC001091652821   -0.5000
     14 C14       -14.0473   -0.9236   60.5661 C.3     1  ZINC001091652821    0.1200
     15 C15       -14.3071   -0.9972   62.0486 C.2     1  ZINC001091652821    0.0000
     16 C16       -14.3049   -2.1111   62.7996 C.2     1  ZINC001091652821   -0.0800
     17 O17       -14.5808   -1.7372   64.0644 O.3     1  ZINC001091652821   -0.2000
     18 C18       -14.7471   -0.4079   64.0704 C.2     1  ZINC001091652821    0.1900
     19 C19       -15.0704    0.4307   65.2801 C.3     1  ZINC001091652821   -0.0600
     20 N20       -14.5772    0.0410   62.8596 N.2     1  ZINC001091652821   -0.4700
     21 C21       -11.8557   -1.9834   60.6032 C.3     1  ZINC001091652821    0.0400
     22 C22       -10.5027   -1.8093   59.8308 C.3     1  ZINC001091652821   -0.0700
     23 C23        -9.3758   -1.3285   60.7472 C.3     1  ZINC001091652821   -0.1300
     24 C24       -10.1631   -3.1218   59.1115 C.3     1  ZINC001091652821    0.1200
     25 C25       -13.0552   -3.5899   55.3541 C.2     1  ZINC001091652821   -0.0500
     26 H26       -14.9094   -2.0806   53.4867 H       1  ZINC001091652821    0.0700
     27 H27       -14.6825   -3.4874   52.4199 H       1  ZINC001091652821    0.0700
     28 H28       -15.3804   -3.7045   54.0429 H       1  ZINC001091652821    0.0700
     29 H29       -12.1725   -3.1187   52.1960 H       1  ZINC001091652821    0.1700
     30 H30        -9.7281   -1.3514   56.9301 H       1  ZINC001091652821    0.0800
     31 H31       -11.5013   -1.3537   56.7099 H       1  ZINC001091652821    0.0800
     32 H32       -12.5115    0.6037   58.6791 H       1  ZINC001091652821    0.0800
     33 H33       -12.9637   -1.0777   58.2612 H       1  ZINC001091652821    0.0500
     34 H34       -14.5994   -0.0851   60.1417 H       1  ZINC001091652821    0.0500
     35 H35       -14.3738   -1.8500   60.0936 H       1  ZINC001091652821    0.1000
     36 H36       -14.1175   -3.1171   62.4543 H       1  ZINC001091652821    0.2100
     37 H37       -15.1497   -0.2119   66.1570 H       1  ZINC001091652821    0.0900
     38 H38       -14.2784    1.1630   65.4368 H       1  ZINC001091652821    0.1000
     39 H39       -16.0170    0.9475   65.1216 H       1  ZINC001091652821    0.1000
     40 H40       -11.6637   -2.0851   61.6713 H       1  ZINC001091652821    0.0900
     41 H41       -12.4055   -2.8480   60.2312 H       1  ZINC001091652821    0.0500
     42 H42        -9.2088   -2.0640   61.5341 H       1  ZINC001091652821    0.0600
     43 H43        -8.4623   -1.2048   60.1656 H       1  ZINC001091652821    0.0600
     44 H44        -9.6537   -0.3743   61.1948 H       1  ZINC001091652821    0.0700
     45 H45       -10.6267   -3.9623   59.6281 H       1  ZINC001091652821    0.0900
     46 H46        -9.0823   -3.2573   59.0709 H       1  ZINC001091652821    0.0800
     47 H47       -13.8474   -3.6531   56.0854 H       1  ZINC001091652821    0.1500
@<TRIPOS>BOND
     1     1     2    1
     2     1    26    1
     3     1    27    1
     4     1    28    1
     5     2    25    1
     6     2     3    2
     7     3     4    1
     8     3    29    1
     9     4     5    1
    10     5     6    1
    11     5    25    2
    12     6     7    2
    13     6     8   am
    14     8    24    1
    15     8     9    1
    16     9    10    1
    17     9    30    1
    18     9    31    1
    19    10    11    1
    20    10    22    1
    21    10    12    1
    22    12    13    1
    23    12    32    1
    24    12    33    1
    25    13    14    1
    26    13    21    1
    27    14    15    1
    28    14    34    1
    29    14    35    1
    30    15    20    1
    31    15    16    2
    32    16    17    1
    33    16    36    1
    34    17    18    1
    35    18    19    1
    36    18    20    2
    37    19    37    1
    38    19    38    1
    39    19    39    1
    40    21    22    1
    41    21    40    1
    42    21    41    1
    43    22    23    1
    44    22    24    1
    45    23    42    1
    46    23    43    1
    47    23    44    1
    48    24    45    1
    49    24    46    1
    50    25    47    1
@<TRIPOS>SUBSTRUCTURE
     1 ZINC001091652821        1 TEMP              0 ****  ****    0 ROOT


##########                                Name:    ZINC000151303733
##########                DOCK_Rotatable_Bonds:                   7
##########                         Heavy_Atoms:                  26
##########                    Molecular_Weight:             369.444
##########                DOCK_Rotatable_Bonds:                   7
##########                       Formal_Charge:        -1.93715e-07
##########                     HBond_Acceptors:                   7
##########                        HBond_Donors:                   2
##########                         Heavy_Atoms:                  26
##########                          Grid_Score:          -31.606495
##########                     Grid_vdw_energy:          -31.774324
##########                      Grid_es_energy:            0.167830
##########           Internal_energy_repulsive:            9.449865

@<TRIPOS>MOLECULE
ZINC000151303733
 45 48 1 0 0
SMALL
USER_CHARGES


@<TRIPOS>ATOM
      1 C1         -6.4245    0.5223   50.3265 C.3     1  ZINC000151303733   -0.1000
      2 C2         -6.5486    1.5591   51.4131 C.2     1  ZINC000151303733   -0.1200
      3 C3         -5.6119    2.4821   51.6346 C.2     1  ZINC000151303733   -0.2000
      4 S4         -6.0994    3.5124   52.9738 S.3     1  ZINC000151303733    0.1200
      5 C5         -7.5948    2.6074   53.1678 C.2     1  ZINC000151303733   -0.2400
      6 C6         -7.6492    1.6296   52.2558 C.2     1  ZINC000151303733    0.1200
      7 N7         -8.7329    0.7365   52.1648 N.am    1  ZINC000151303733   -0.6400
      8 C8         -9.1404    0.0580   53.2557 C.2     1  ZINC000151303733    0.5100
      9 O9         -8.5730    0.2171   54.3160 O.2     1  ZINC000151303733   -0.5100
     10 C10       -10.3010   -0.8984   53.1582 C.3     1  ZINC000151303733    0.1000
     11 N11       -10.6019   -1.4381   54.4865 N.am    1  ZINC000151303733   -0.7100
     12 C12       -11.8756   -1.4771   54.9254 C.2     1  ZINC000151303733    0.5200
     13 O13       -12.7725   -1.0641   54.2211 O.2     1  ZINC000151303733   -0.5100
     14 C14       -12.1853   -2.0339   56.2910 C.3     1  ZINC000151303733    0.1600
     15 H15       -13.1827   -1.7248   56.6038 H       1  ZINC000151303733    0.1300
     16 C16       -11.1589   -1.5597   57.2891 C.ar    1  ZINC000151303733   -0.0900
     17 C17       -10.7817   -0.3138   57.7331 C.ar    1  ZINC000151303733   -0.0900
     18 C18        -9.7800   -0.1915   58.6819 C.ar    1  ZINC000151303733   -0.0800
     19 C19        -9.1569   -1.3197   59.1849 C.ar    1  ZINC000151303733   -0.1200
     20 C20        -9.5276   -2.5743   58.7461 C.ar    1  ZINC000151303733   -0.0400
     21 C21       -10.5362   -2.7056   57.7903 C.ar    1  ZINC000151303733   -0.1500
     22 C22       -11.1404   -3.8831   57.1381 C.2     1  ZINC000151303733    0.5600
     23 O23       -10.8221   -5.0362   57.3536 O.2     1  ZINC000151303733   -0.5100
     24 N24       -12.0944   -3.4983   56.2709 N.am    1  ZINC000151303733   -0.5700
     25 C25       -12.9069   -4.3937   55.4437 C.3     1  ZINC000151303733    0.0900
     26 C26       -14.1030   -5.0782   56.1085 C.3     1  ZINC000151303733   -0.1800
     27 C27       -14.3302   -3.9455   55.1054 C.3     1  ZINC000151303733   -0.1900
     28 H28        -6.8591    0.9084   49.4044 H       1  ZINC000151303733    0.0700
     29 H29        -5.3718    0.2914   50.1630 H       1  ZINC000151303733    0.0700
     30 H30        -6.9527   -0.3829   50.6259 H       1  ZINC000151303733    0.0600
     31 H31        -4.6927    2.5816   51.0763 H       1  ZINC000151303733    0.1700
     32 H32        -8.3551    2.8122   53.9070 H       1  ZINC000151303733    0.2000
     33 H33        -9.1865    0.6093   51.3170 H       1  ZINC000151303733    0.4200
     34 H34       -11.1744   -0.3718   52.7736 H       1  ZINC000151303733    0.1100
     35 H35       -10.0431   -1.7151   52.4841 H       1  ZINC000151303733    0.1100
     36 H36        -9.8844   -1.7672   55.0502 H       1  ZINC000151303733    0.4100
     37 H37       -11.2661    0.5687   57.3421 H       1  ZINC000151303733    0.1300
     38 H38        -9.4842    0.7872   59.0297 H       1  ZINC000151303733    0.1400
     39 H39        -8.3762   -1.2178   59.9242 H       1  ZINC000151303733    0.1400
     40 H40        -9.0388   -3.4525   59.1417 H       1  ZINC000151303733    0.1400
     41 H41       -12.3626   -4.9561   54.6851 H       1  ZINC000151303733    0.1400
     42 H42       -14.3456   -6.0912   55.7872 H       1  ZINC000151303733    0.1000
     43 H43       -14.2853   -4.8624   57.1612 H       1  ZINC000151303733    0.1300
     44 H44       -14.6619   -2.9844   55.4982 H       1  ZINC000151303733    0.1000
     45 H45       -14.7223   -4.2132   54.1242 H       1  ZINC000151303733    0.1000
@<TRIPOS>BOND
     1     1     2    1
     2     1    28    1
     3     1    29    1
     4     1    30    1
     5     2     6    1
     6     2     3    2
     7     3     4    1
     8     3    31    1
     9     4     5    1
    10     5     6    2
    11     5    32    1
    12     6     7    1
    13     7     8   am
    14     7    33    1
    15     8     9    2
    16     8    10    1
    17    10    11    1
    18    10    34    1
    19    10    35    1
    20    11    12   am
    21    11    36    1
    22    12    13    2
    23    12    14    1
    24    14    15    1
    25    14    24    1
    26    14    16    1
    27    16    21   ar
    28    16    17   ar
    29    17    18   ar
    30    17    37    1
    31    18    19   ar
    32    18    38    1
    33    19    20   ar
    34    19    39    1
    35    20    21   ar
    36    20    40    1
    37    21    22    1
    38    22    23    2
    39    22    24   am
    40    24    25    1
    41    25    27    1
    42    25    26    1
    43    25    41    1
    44    26    27    1
    45    26    42    1
    46    26    43    1
    47    27    44    1
    48    27    45    1
@<TRIPOS>SUBSTRUCTURE
     1 ZINC000151303733        1 TEMP              0 ****  ****    0 ROOT


##########                                Name:    ZINC000588570917
##########                DOCK_Rotatable_Bonds:                   7
##########                         Heavy_Atoms:                  25
##########                    Molecular_Weight:             366.481
##########                DOCK_Rotatable_Bonds:                   7
##########                       Formal_Charge:          -0.0100006
##########                     HBond_Acceptors:                   7
##########                        HBond_Donors:                   1
##########                         Heavy_Atoms:                  25
##########                          Grid_Score:          -31.594913
##########                     Grid_vdw_energy:          -30.711666
##########                      Grid_es_energy:           -0.883248
##########           Internal_energy_repulsive:           16.623785

@<TRIPOS>MOLECULE
ZINC000588570917
 51 52 1 0 0
SMALL
USER_CHARGES


@<TRIPOS>ATOM
      1 C1        -13.9597   -0.6186   47.9543 C.3     1  ZINC000588570917   -0.1300
      2 C2        -13.7277   -1.2086   49.3214 C.2     1  ZINC000588570917   -0.0500
      3 C3        -13.4347   -0.4146   50.3476 C.2     1  ZINC000588570917   -0.2000
      4 C4        -13.3331    1.0750   50.1428 C.3     1  ZINC000588570917   -0.0900
      5 C5        -14.6892    1.7228   50.4289 C.3     1  ZINC000588570917   -0.1500
      6 C6        -13.2099   -0.9903   51.6821 C.2     1  ZINC000588570917    0.5600
      7 O7        -13.2397   -0.2755   52.6656 O.2     1  ZINC000588570917   -0.5100
      8 N8        -12.9708   -2.3100   51.8151 N.am    1  ZINC000588570917   -0.6800
      9 C9        -12.7571   -2.8575   53.0839 C.ar    1  ZINC000588570917    0.2100
     10 C10       -11.4690   -2.9456   53.5960 C.ar    1  ZINC000588570917   -0.1700
     11 C11       -11.2615   -3.4863   54.8497 C.ar    1  ZINC000588570917    0.0000
     12 C12       -12.3344   -3.9399   55.5950 C.ar    1  ZINC000588570917   -0.7000
     13 S13       -12.0652   -4.6291   57.1942 S.o2    1  ZINC000588570917    2.6900
     14 O14       -13.2486   -5.3412   57.5286 O.2     1  ZINC000588570917   -0.9500
     15 O15       -10.7789   -5.2319   57.1599 O.2     1  ZINC000588570917   -0.9500
     16 N16       -11.9617   -3.3668   58.2610 N.am    1  ZINC000588570917   -1.0000
     17 C17       -10.7438   -3.1454   59.0567 C.3     1  ZINC000588570917    0.0900
     18 C18       -10.3225   -1.6800   58.8981 C.3     1  ZINC000588570917    0.0700
     19 H19        -9.9947   -1.5042   57.8736 H       1  ZINC000588570917    0.0700
     20 C20        -9.1750   -1.3711   59.8618 C.3     1  ZINC000588570917   -0.1500
     21 O21       -11.4369   -0.8351   59.1947 O.3     1  ZINC000588570917   -0.3700
     22 C22       -12.5493   -1.0024   58.3123 C.3     1  ZINC000588570917    0.0800
     23 H23       -13.3344   -0.2946   58.5782 H       1  ZINC000588570917    0.1200
     24 C24       -12.1009   -0.7509   56.8713 C.3     1  ZINC000588570917   -0.1900
     25 C25       -13.0825   -2.4297   58.4368 C.3     1  ZINC000588570917    0.0900
     26 C26       -13.6181   -3.8532   55.0884 C.ar    1  ZINC000588570917    0.0000
     27 C27       -13.8330   -3.3090   53.8374 C.ar    1  ZINC000588570917   -0.1400
     28 H28       -14.1856   -1.4170   47.2476 H       1  ZINC000588570917    0.0600
     29 H29       -14.7977    0.0772   47.9964 H       1  ZINC000588570917    0.0800
     30 H30       -13.0637   -0.0891   47.6302 H       1  ZINC000588570917    0.0800
     31 H31       -13.7991   -2.2762   49.4680 H       1  ZINC000588570917    0.1300
     32 H32       -12.5844    1.4847   50.8207 H       1  ZINC000588570917    0.0700
     33 H33       -13.0421    1.2810   49.1127 H       1  ZINC000588570917    0.0800
     34 H34       -14.9802    1.5167   51.4590 H       1  ZINC000588570917    0.0500
     35 H35       -14.6158    2.8002   50.2808 H       1  ZINC000588570917    0.0600
     36 H36       -15.4380    1.3130   49.7510 H       1  ZINC000588570917    0.0600
     37 H37       -12.9471   -2.8800   51.0307 H       1  ZINC000588570917    0.4100
     38 H38       -10.6306   -2.5919   53.0142 H       1  ZINC000588570917    0.1400
     39 H39       -10.2601   -3.5554   55.2484 H       1  ZINC000588570917    0.1400
     40 H40       -10.9475   -3.3572   60.1063 H       1  ZINC000588570917    0.0900
     41 H41        -9.9473   -3.7972   58.6979 H       1  ZINC000588570917    0.1000
     42 H42        -8.3275   -2.0187   59.6371 H       1  ZINC000588570917    0.0700
     43 H43        -8.8758   -0.3290   59.7485 H       1  ZINC000588570917    0.0700
     44 H44        -9.5039   -1.5453   60.8863 H       1  ZINC000588570917    0.0700
     45 H45       -11.3170   -1.4602   56.6057 H       1  ZINC000588570917    0.0600
     46 H46       -12.9495   -0.8787   56.1993 H       1  ZINC000588570917    0.0700
     47 H47       -11.7168    0.2652   56.7824 H       1  ZINC000588570917    0.0700
     48 H48       -13.8361   -2.6083   57.6697 H       1  ZINC000588570917    0.1000
     49 H49       -13.5220   -2.5727   59.4240 H       1  ZINC000588570917    0.0900
     50 H50       -14.4539   -4.2083   55.6730 H       1  ZINC000588570917    0.1400
     51 H51       -14.8360   -3.2413   53.4424 H       1  ZINC000588570917    0.1500
@<TRIPOS>BOND
     1     1     2    1
     2     1    28    1
     3     1    29    1
     4     1    30    1
     5     2     3    2
     6     2    31    1
     7     3     4    1
     8     3     6    1
     9     4     5    1
    10     4    32    1
    11     4    33    1
    12     5    34    1
    13     5    35    1
    14     5    36    1
    15     6     7    2
    16     6     8   am
    17     8     9    1
    18     8    37    1
    19     9    27   ar
    20     9    10   ar
    21    10    11   ar
    22    10    38    1
    23    11    12   ar
    24    11    39    1
    25    12    13    1
    26    12    26   ar
    27    13    14    2
    28    13    15    2
    29    13    16   am
    30    16    25    1
    31    16    17    1
    32    17    18    1
    33    17    40    1
    34    17    41    1
    35    18    19    1
    36    18    20    1
    37    18    21    1
    38    20    42    1
    39    20    43    1
    40    20    44    1
    41    21    22    1
    42    22    23    1
    43    22    24    1
    44    22    25    1
    45    24    45    1
    46    24    46    1
    47    24    47    1
    48    25    48    1
    49    25    49    1
    50    26    27   ar
    51    26    50    1
    52    27    51    1
@<TRIPOS>SUBSTRUCTURE
     1 ZINC000588570917        1 TEMP              0 ****  ****    0 ROOT


##########                                Name:    ZINC001015955459
##########                DOCK_Rotatable_Bonds:                   6
##########                         Heavy_Atoms:                  24
##########                    Molecular_Weight:             347.844
##########                DOCK_Rotatable_Bonds:                   6
##########                       Formal_Charge:          -0.0200002
##########                     HBond_Acceptors:                   6
##########                        HBond_Donors:                   1
##########                         Heavy_Atoms:                  24
##########                          Grid_Score:          -31.584038
##########                     Grid_vdw_energy:          -31.717159
##########                      Grid_es_energy:            0.133121
##########           Internal_energy_repulsive:           11.566936

@<TRIPOS>MOLECULE
ZINC001015955459
 46 48 1 0 0
SMALL
USER_CHARGES


@<TRIPOS>ATOM
      1 C1         -7.9169    2.2468   53.7967 C.3     1  ZINC001015955459   -0.1500
      2 C2         -8.3183    2.0897   52.3287 C.3     1  ZINC001015955459   -0.0300
      3 C3         -7.5103    3.0662   51.4717 C.3     1  ZINC001015955459   -0.1500
      4 C4         -8.0395    0.6783   51.8801 C.2     1  ZINC001015955459    0.0600
      5 C5         -8.7446   -0.4345   52.2218 C.2     1  ZINC001015955459   -0.0800
      6 C6         -9.9261   -0.4867   53.1019 C.2     1  ZINC001015955459    0.6100
      7 O7        -10.5673    0.5236   53.3197 O.2     1  ZINC001015955459   -0.5300
      8 N8        -10.2959   -1.6540   53.6650 N.am    1  ZINC001015955459   -0.7100
      9 C9        -11.4711   -1.7062   54.5382 C.3     1  ZINC001015955459    0.1400
     10 H10       -11.8654   -0.7033   54.7016 H       1  ZINC001015955459    0.1000
     11 C11       -12.5555   -2.6147   53.9232 C.3     1  ZINC001015955459   -0.1300
     12 C12       -12.7597   -3.7481   54.9513 C.3     1  ZINC001015955459    0.0200
     13 N13       -12.3112   -3.1671   56.2429 N.3     1  ZINC001015955459   -0.4900
     14 C14       -11.9723   -4.2235   57.2059 C.3     1  ZINC001015955459    0.0800
     15 C15       -11.2339   -3.6209   58.3732 C.ar    1  ZINC001015955459   -0.1100
     16 C16       -10.0131   -4.1403   58.7611 C.ar    1  ZINC001015955459   -0.1100
     17 C17        -9.3327   -3.5849   59.8290 C.ar    1  ZINC001015955459   -0.1000
     18 C18        -9.8780   -2.5169   60.5158 C.ar    1  ZINC001015955459   -0.1100
     19 C19       -11.1026   -1.9999   60.1313 C.ar    1  ZINC001015955459   -0.0300
     20 Cl20      -11.7885   -0.6586   60.9941 Cl      1  ZINC001015955459   -0.0700
     21 C21       -11.7802   -2.5526   59.0595 C.ar    1  ZINC001015955459   -0.1000
     22 C22       -11.1087   -2.3662   55.8860 C.3     1  ZINC001015955459    0.0100
     23 N23        -8.1503   -1.4904   51.6029 N.2     1  ZINC001015955459   -0.4600
     24 C24        -7.1423   -1.0489   50.9119 C.2     1  ZINC001015955459    0.1800
     25 O25        -7.0486    0.2794   51.0667 O.3     1  ZINC001015955459   -0.1900
     26 H26        -6.8538    2.0337   53.9074 H       1  ZINC001015955459    0.0600
     27 H27        -8.1186    3.2677   54.1212 H       1  ZINC001015955459    0.0700
     28 H28        -8.4925    1.5512   54.4072 H       1  ZINC001015955459    0.0600
     29 H29        -9.3815    2.3029   52.2179 H       1  ZINC001015955459    0.1300
     30 H30        -7.7963    2.9543   50.4258 H       1  ZINC001015955459    0.0600
     31 H31        -7.7120    4.0871   51.7962 H       1  ZINC001015955459    0.0700
     32 H32        -6.4472    2.8532   51.5825 H       1  ZINC001015955459    0.0600
     33 H33        -9.7838   -2.4595   53.4921 H       1  ZINC001015955459    0.4100
     34 H34       -13.4821   -2.0577   53.7847 H       1  ZINC001015955459    0.0800
     35 H35       -12.2134   -3.0217   52.9716 H       1  ZINC001015955459    0.0700
     36 H36       -13.8120   -4.0274   55.0051 H       1  ZINC001015955459    0.0900
     37 H37       -12.1490   -4.6124   54.6906 H       1  ZINC001015955459    0.0500
     38 H38       -12.8869   -4.6988   57.5606 H       1  ZINC001015955459    0.0900
     39 H39       -11.3404   -4.9678   56.7212 H       1  ZINC001015955459    0.0900
     40 H40        -9.5887   -4.9778   58.2274 H       1  ZINC001015955459    0.1300
     41 H41        -8.3770   -3.9885   60.1290 H       1  ZINC001015955459    0.1300
     42 H42        -9.3486   -2.0861   61.3528 H       1  ZINC001015955459    0.1300
     43 H43       -12.7364   -2.1498   58.7592 H       1  ZINC001015955459    0.1300
     44 H44       -10.2399   -3.0142   55.7706 H       1  ZINC001015955459    0.0700
     45 H45       -10.9186   -1.6051   56.6428 H       1  ZINC001015955459    0.0900
     46 H46        -6.4815   -1.6566   50.3117 H       1  ZINC001015955459    0.2600
@<TRIPOS>BOND
     1     1     2    1
     2     1    26    1
     3     1    27    1
     4     1    28    1
     5     2     3    1
     6     2     4    1
     7     2    29    1
     8     3    30    1
     9     3    31    1
    10     3    32    1
    11     4    25    1
    12     4     5    2
    13     5     6    1
    14     5    23    1
    15     6     7    2
    16     6     8   am
    17     8     9    1
    18     8    33    1
    19     9    10    1
    20     9    22    1
    21     9    11    1
    22    11    12    1
    23    11    34    1
    24    11    35    1
    25    12    13    1
    26    12    36    1
    27    12    37    1
    28    13    14    1
    29    13    22    1
    30    14    15    1
    31    14    38    1
    32    14    39    1
    33    15    21   ar
    34    15    16   ar
    35    16    17   ar
    36    16    40    1
    37    17    18   ar
    38    17    41    1
    39    18    19   ar
    40    18    42    1
    41    19    20    1
    42    19    21   ar
    43    21    43    1
    44    22    44    1
    45    22    45    1
    46    23    24    2
    47    24    25    1
    48    24    46    1
@<TRIPOS>SUBSTRUCTURE
     1 ZINC001015955459        1 TEMP              0 ****  ****    0 ROOT


##########                                Name:    ZINC000481838178
##########                DOCK_Rotatable_Bonds:                   6
##########                         Heavy_Atoms:                  29
##########                    Molecular_Weight:             408.524
##########                DOCK_Rotatable_Bonds:                   6
##########                       Formal_Charge:         -0.00999962
##########                     HBond_Acceptors:                   7
##########                        HBond_Donors:                   0
##########                         Heavy_Atoms:                  29
##########                          Grid_Score:          -31.576284
##########                     Grid_vdw_energy:          -30.267485
##########                      Grid_es_energy:           -1.308800
##########           Internal_energy_repulsive:            5.636351

@<TRIPOS>MOLECULE
ZINC000481838178
 53 57 1 0 0
SMALL
USER_CHARGES


@<TRIPOS>ATOM
      1 O1        -11.0658   -5.0593   56.9812 O.2     1  ZINC000481838178   -0.5200
      2 C2        -11.7498   -4.0888   57.2287 C.2     1  ZINC000481838178    0.5500
      3 C3        -13.0545   -3.8818   56.5035 C.3     1  ZINC000481838178   -0.1500
      4 S4        -13.0060   -4.7482   54.9151 S.3     1  ZINC000481838178    0.1000
      5 C5        -12.3359   -3.4781   53.8941 C.2     1  ZINC000481838178    0.1600
      6 N6        -11.1137   -3.4277   53.4142 N.2     1  ZINC000481838178   -0.2800
      7 N7        -10.9574   -2.3652   52.7086 N.2     1  ZINC000481838178   -0.2500
      8 C8        -12.0723   -1.6676   52.6925 C.2     1  ZINC000481838178    0.2700
      9 C9        -12.2962   -0.3915   51.9962 C.2     1  ZINC000481838178    0.0300
     10 C10       -13.3410   -0.1033   51.1698 C.2     1  ZINC000481838178   -0.1300
     11 C11       -13.1552    1.2211   50.7286 C.2     1  ZINC000481838178   -0.2100
     12 C12       -12.0207    1.6729   51.2992 C.2     1  ZINC000481838178   -0.0100
     13 O13       -11.5073    0.6987   52.0687 O.3     1  ZINC000481838178   -0.1700
     14 N14       -12.9935   -2.3631   53.4480 N.pl3   1  ZINC000481838178   -0.4100
     15 C15       -14.3215   -2.0000   53.7112 C.ar    1  ZINC000481838178    0.1000
     16 C16       -14.6002   -0.8047   54.3600 C.ar    1  ZINC000481838178   -0.0800
     17 C17       -15.9099   -0.4496   54.6181 C.ar    1  ZINC000481838178   -0.1100
     18 C18       -16.9429   -1.2833   54.2307 C.ar    1  ZINC000481838178   -0.1000
     19 C19       -16.6684   -2.4745   53.5843 C.ar    1  ZINC000481838178   -0.1100
     20 C20       -15.3610   -2.8323   53.3184 C.ar    1  ZINC000481838178   -0.0900
     21 N21       -11.3459   -3.1985   58.1565 N.am    1  ZINC000481838178   -0.6200
     22 C22       -12.0840   -1.9752   58.5702 C.3     1  ZINC000481838178    0.1000
     23 C23       -11.5771   -1.7271   59.9958 C.3     1  ZINC000481838178   -0.1100
     24 H24       -12.0145   -2.4392   60.6955 H       1  ZINC000481838178    0.0900
     25 C25       -11.7061   -0.3077   60.5157 C.3     1  ZINC000481838178   -0.1100
     26 C26       -11.0348   -0.2704   61.8987 C.3     1  ZINC000481838178   -0.1200
     27 C27        -9.5759   -0.7099   61.8285 C.3     1  ZINC000481838178   -0.1200
     28 C28        -9.4310   -2.0878   61.1605 C.3     1  ZINC000481838178   -0.1000
     29 C29       -10.0573   -2.0019   59.7879 C.3     1  ZINC000481838178   -0.1100
     30 H30        -9.6189   -1.1750   59.2292 H       1  ZINC000481838178    0.0900
     31 C31       -10.0911   -3.2734   58.9454 C.3     1  ZINC000481838178    0.1200
     32 H32       -13.8723   -4.2755   57.1073 H       1  ZINC000481838178    0.1300
     33 H33       -13.2098   -2.8167   56.3318 H       1  ZINC000481838178    0.1300
     34 H34       -14.1538   -0.7631   50.9043 H       1  ZINC000481838178    0.1600
     35 H35       -13.7999    1.7709   50.0591 H       1  ZINC000481838178    0.1600
     36 H36       -11.5968    2.6570   51.1637 H       1  ZINC000481838178    0.2100
     37 H37       -13.7939   -0.1533   54.6631 H       1  ZINC000481838178    0.1300
     38 H38       -16.1273    0.4799   55.1230 H       1  ZINC000481838178    0.1400
     39 H39       -17.9661   -1.0037   54.4338 H       1  ZINC000481838178    0.1300
     40 H40       -17.4773   -3.1238   53.2833 H       1  ZINC000481838178    0.1400
     41 H41       -15.1473   -3.7627   52.8134 H       1  ZINC000481838178    0.1300
     42 H42       -11.8333   -1.1362   57.9210 H       1  ZINC000481838178    0.0800
     43 H43       -13.1590   -2.1557   58.5699 H       1  ZINC000481838178    0.0800
     44 H44       -11.2024    0.3830   59.8394 H       1  ZINC000481838178    0.0700
     45 H45       -12.7587   -0.0393   60.6062 H       1  ZINC000481838178    0.0700
     46 H46       -11.0817    0.7462   62.2894 H       1  ZINC000481838178    0.0600
     47 H47       -11.5743   -0.9347   62.5739 H       1  ZINC000481838178    0.0600
     48 H48        -9.0102    0.0247   61.2553 H       1  ZINC000481838178    0.0600
     49 H49        -9.1703   -0.7598   62.8390 H       1  ZINC000481838178    0.0700
     50 H50        -8.3764   -2.3487   61.0719 H       1  ZINC000481838178    0.0700
     51 H51        -9.9533   -2.8425   61.7486 H       1  ZINC000481838178    0.0700
     52 H52       -10.0900   -4.1522   59.5901 H       1  ZINC000481838178    0.0700
     53 H53        -9.2361   -3.3002   58.2699 H       1  ZINC000481838178    0.0700
@<TRIPOS>BOND
     1     1     2    2
     2     2     3    1
     3     2    21   am
     4     3     4    1
     5     3    32    1
     6     3    33    1
     7     4     5    1
     8     5    14    1
     9     5     6    2
    10     6     7    1
    11     7     8    2
    12     8     9    1
    13     8    14    1
    14     9    13    1
    15     9    10    2
    16    10    11    1
    17    10    34    1
    18    11    12    2
    19    11    35    1
    20    12    13    1
    21    12    36    1
    22    14    15    1
    23    15    20   ar
    24    15    16   ar
    25    16    17   ar
    26    16    37    1
    27    17    18   ar
    28    17    38    1
    29    18    19   ar
    30    18    39    1
    31    19    20   ar
    32    19    40    1
    33    20    41    1
    34    21    31    1
    35    21    22    1
    36    22    23    1
    37    22    42    1
    38    22    43    1
    39    23    24    1
    40    23    29    1
    41    23    25    1
    42    25    26    1
    43    25    44    1
    44    25    45    1
    45    26    27    1
    46    26    46    1
    47    26    47    1
    48    27    28    1
    49    27    48    1
    50    27    49    1
    51    28    29    1
    52    28    50    1
    53    28    51    1
    54    29    30    1
    55    29    31    1
    56    31    52    1
    57    31    53    1
@<TRIPOS>SUBSTRUCTURE
     1 ZINC000481838178        1 TEMP              0 ****  ****    0 ROOT


##########                                Name:    ZINC001011676549
##########                DOCK_Rotatable_Bonds:                   6
##########                         Heavy_Atoms:                  24
##########                    Molecular_Weight:             330.387
##########                DOCK_Rotatable_Bonds:                   6
##########                       Formal_Charge:        -1.49012e-07
##########                     HBond_Acceptors:                   7
##########                        HBond_Donors:                   1
##########                         Heavy_Atoms:                  24
##########                          Grid_Score:          -31.570673
##########                     Grid_vdw_energy:          -30.211353
##########                      Grid_es_energy:           -1.359319
##########           Internal_energy_repulsive:           21.520815

@<TRIPOS>MOLECULE
ZINC001011676549
 46 48 1 0 0
SMALL
USER_CHARGES


@<TRIPOS>ATOM
      1 C1        -11.8594   -1.8873   58.5503 C.3     1  ZINC001011676549   -0.1700
      2 C2        -10.3716   -2.1860   58.3548 C.3     1  ZINC001011676549    0.1300
      3 H3        -10.0694   -1.9164   57.3428 H       1  ZINC001011676549    0.0900
      4 C4         -9.5374   -1.3908   59.3811 C.3     1  ZINC001011676549    0.1400
      5 H5         -8.5933   -1.0672   58.9428 H       1  ZINC001011676549    0.1100
      6 N6        -10.2936   -0.2417   59.8849 N.am    1  ZINC001011676549   -0.7200
      7 C7        -10.2958    0.9175   59.1972 C.2     1  ZINC001011676549    0.5200
      8 O8         -9.6704    1.0097   58.1622 O.2     1  ZINC001011676549   -0.5300
      9 C9        -11.0751    2.0990   59.7146 C.3     1  ZINC001011676549   -0.0900
     10 C10       -11.3660    1.9059   61.1806 C.ar    1  ZINC001011676549   -0.1800
     11 C11       -12.6683    1.9276   61.6545 C.ar    1  ZINC001011676549    0.1600
     12 N12       -12.8853    1.7544   62.9484 N.ar    1  ZINC001011676549   -0.5200
     13 C13       -11.8823    1.5633   63.7816 C.ar    1  ZINC001011676549    0.3000
     14 N14       -10.6316    1.5365   63.3670 N.ar    1  ZINC001011676549   -0.5200
     15 C15       -10.3383    1.6966   62.0865 C.ar    1  ZINC001011676549    0.1600
     16 C16        -9.2922   -2.4284   60.5083 C.3     1  ZINC001011676549   -0.1400
     17 C17        -9.1428   -3.7395   59.6971 C.3     1  ZINC001011676549    0.1000
     18 N18       -10.1132   -3.6141   58.5901 N.am    1  ZINC001011676549   -0.6100
     19 C19       -10.6697   -4.6383   57.9135 C.2     1  ZINC001011676549    0.5800
     20 O20       -10.3813   -5.7845   58.2000 O.2     1  ZINC001011676549   -0.5300
     21 C21       -11.6259   -4.3697   56.8284 C.2     1  ZINC001011676549   -0.1400
     22 C22       -11.2189   -3.6860   55.7742 C.2     1  ZINC001011676549   -0.1500
     23 C23       -12.1270   -3.3573   54.6230 C.3     1  ZINC001011676549    0.0900
     24 O24       -13.2998   -4.1720   54.6748 O.3     1  ZINC001011676549   -0.3800
     25 C25       -13.9381   -4.1575   55.9573 C.3     1  ZINC001011676549    0.0600
     26 C26       -13.0322   -4.8883   56.9545 C.3     1  ZINC001011676549   -0.1100
     27 H27       -12.1573   -2.1707   59.5598 H       1  ZINC001011676549    0.0600
     28 H28       -12.0383   -0.8221   58.4043 H       1  ZINC001011676549    0.0700
     29 H29       -12.4424   -2.4562   57.8262 H       1  ZINC001011676549    0.0800
     30 H30       -10.7928   -0.3151   60.7132 H       1  ZINC001011676549    0.4100
     31 H31       -10.4902    3.0085   59.5770 H       1  ZINC001011676549    0.1100
     32 H32       -12.0132    2.1838   59.1661 H       1  ZINC001011676549    0.1100
     33 H33       -13.4948    2.0840   60.9771 H       1  ZINC001011676549    0.1700
     34 H34       -12.0908    1.4252   64.8323 H       1  ZINC001011676549    0.2000
     35 H35        -9.3112    1.6732   61.7532 H       1  ZINC001011676549    0.1700
     36 H36        -8.3775   -2.2015   61.0560 H       1  ZINC001011676549    0.0900
     37 H37       -10.1466   -2.4817   61.1829 H       1  ZINC001011676549    0.0800
     38 H38        -8.1302   -3.8289   59.3035 H       1  ZINC001011676549    0.0800
     39 H39        -9.3861   -4.6007   60.3195 H       1  ZINC001011676549    0.0800
     40 H40       -10.1932   -3.3498   55.7382 H       1  ZINC001011676549    0.1200
     41 H41       -12.4138   -2.3071   54.6772 H       1  ZINC001011676549    0.0700
     42 H42       -11.6020   -3.5387   53.6851 H       1  ZINC001011676549    0.1100
     43 H43       -14.0884   -3.1274   56.2801 H       1  ZINC001011676549    0.0600
     44 H44       -14.8988   -4.6686   55.8941 H       1  ZINC001011676549    0.1000
     45 H45       -13.0513   -5.9580   56.7460 H       1  ZINC001011676549    0.0900
     46 H46       -13.3904   -4.7101   57.9685 H       1  ZINC001011676549    0.0900
@<TRIPOS>BOND
     1     1     2    1
     2     1    27    1
     3     1    28    1
     4     1    29    1
     5     2     3    1
     6     2    18    1
     7     2     4    1
     8     4     5    1
     9     4     6    1
    10     4    16    1
    11     6     7   am
    12     6    30    1
    13     7     8    2
    14     7     9    1
    15     9    10    1
    16     9    31    1
    17     9    32    1
    18    10    15   ar
    19    10    11   ar
    20    11    12   ar
    21    11    33    1
    22    12    13   ar
    23    13    14   ar
    24    13    34    1
    25    14    15   ar
    26    15    35    1
    27    16    17    1
    28    16    36    1
    29    16    37    1
    30    17    18    1
    31    17    38    1
    32    17    39    1
    33    18    19   am
    34    19    20    2
    35    19    21    1
    36    21    26    1
    37    21    22    2
    38    22    23    1
    39    22    40    1
    40    23    24    1
    41    23    41    1
    42    23    42    1
    43    24    25    1
    44    25    26    1
    45    25    43    1
    46    25    44    1
    47    26    45    1
    48    26    46    1
@<TRIPOS>SUBSTRUCTURE
     1 ZINC001011676549        1 TEMP              0 ****  ****    0 ROOT


##########                                Name:    ZINC000461336108
##########                DOCK_Rotatable_Bonds:                   5
##########                         Heavy_Atoms:                  26
##########                    Molecular_Weight:             373.522
##########                DOCK_Rotatable_Bonds:                   5
##########                       Formal_Charge:        -3.42727e-07
##########                     HBond_Acceptors:                   7
##########                        HBond_Donors:                   0
##########                         Heavy_Atoms:                  26
##########                          Grid_Score:          -31.565012
##########                     Grid_vdw_energy:          -31.335140
##########                      Grid_es_energy:           -0.229872
##########           Internal_energy_repulsive:           12.645436

@<TRIPOS>MOLECULE
ZINC000461336108
 53 56 1 0 0
SMALL
USER_CHARGES


@<TRIPOS>ATOM
      1 C1        -11.5540    1.0051   59.7081 C.3     1  ZINC000461336108   -0.1300
      2 C2        -10.1739    0.4256   60.0251 C.3     1  ZINC000461336108    0.0700
      3 H3         -9.4230    0.9231   59.4113 H       1  ZINC000461336108    0.0800
      4 C4         -9.8601    0.6509   61.4772 C.2     1  ZINC000461336108    0.5300
      5 O5        -10.1267    1.7268   61.9692 O.2     1  ZINC000461336108   -0.5300
      6 N6         -9.2994   -0.2855   62.2498 N.am    1  ZINC000461336108   -0.6100
      7 C7         -8.9994    0.0458   63.6449 C.3     1  ZINC000461336108    0.0700
      8 C8         -8.9732   -1.6235   61.7649 C.3     1  ZINC000461336108    0.1200
      9 C9         -8.9340   -1.6320   60.2357 C.3     1  ZINC000461336108    0.0400
     10 N10       -10.1698   -1.0135   59.7301 N.3     1  ZINC000461336108   -0.4300
     11 C11       -10.3181   -1.2392   58.3710 C.2     1  ZINC000461336108    0.3300
     12 N12        -9.7998   -0.5244   57.4003 N.2     1  ZINC000461336108   -0.2500
     13 N13       -10.1406   -1.0186   56.2640 N.2     1  ZINC000461336108   -0.2800
     14 C14       -10.8904   -2.0695   56.4405 C.2     1  ZINC000461336108    0.2000
     15 C15       -11.4914   -2.9299   55.3591 C.3     1  ZINC000461336108   -0.0300
     16 C16       -11.4451   -2.1803   54.0262 C.3     1  ZINC000461336108   -0.0900
     17 C17       -12.1355   -3.0086   52.9142 C.3     1  ZINC000461336108   -0.1200
     18 C18       -12.5354   -1.9266   51.8805 C.3     1  ZINC000461336108   -0.1200
     19 C19       -12.9721   -0.7236   52.7418 C.3     1  ZINC000461336108   -0.1300
     20 C20       -12.2789   -0.8849   54.1059 C.3     1  ZINC000461336108   -0.1200
     21 N21       -11.0260   -2.2504   57.7892 N.pl3   1  ZINC000461336108   -0.4900
     22 C22       -11.7815   -3.3059   58.4684 C.3     1  ZINC000461336108    0.1700
     23 C23       -13.2579   -3.0469   58.3121 C.2     1  ZINC000461336108   -0.2400
     24 C24       -13.8203   -1.8420   58.2073 C.2     1  ZINC000461336108   -0.0900
     25 C25       -15.1978   -1.8511   58.0712 C.2     1  ZINC000461336108   -0.1400
     26 C26       -15.7539   -3.0635   58.0654 C.2     1  ZINC000461336108   -0.2000
     27 S27       -14.5019   -4.2876   58.2323 S.3     1  ZINC000461336108    0.1200
     28 H28       -12.3062    0.5087   60.3213 H       1  ZINC000461336108    0.0800
     29 H29       -11.5576    2.0737   59.9230 H       1  ZINC000461336108    0.0800
     30 H30       -11.7816    0.8458   58.6541 H       1  ZINC000461336108    0.0700
     31 H31        -9.3011    1.0735   63.8473 H       1  ZINC000461336108    0.0900
     32 H32        -9.5450   -0.6295   64.3041 H       1  ZINC000461336108    0.0700
     33 H33        -7.9290   -0.0601   63.8215 H       1  ZINC000461336108    0.0600
     34 H34        -7.9992   -1.9215   62.1534 H       1  ZINC000461336108    0.0900
     35 H35        -9.7295   -2.3280   62.1113 H       1  ZINC000461336108    0.0900
     36 H36        -8.0709   -1.0638   59.8889 H       1  ZINC000461336108    0.0500
     37 H37        -8.8660   -2.6593   59.8775 H       1  ZINC000461336108    0.1100
     38 H38       -10.9239   -3.8566   55.2747 H       1  ZINC000461336108    0.0800
     39 H39       -12.5267   -3.1597   55.6110 H       1  ZINC000461336108    0.1000
     40 H40       -10.4146   -1.9544   53.7522 H       1  ZINC000461336108    0.0900
     41 H41       -11.4389   -3.7230   52.4757 H       1  ZINC000461336108    0.0600
     42 H42       -13.0182   -3.5166   53.3027 H       1  ZINC000461336108    0.0600
     43 H43       -11.6816   -1.6600   51.2577 H       1  ZINC000461336108    0.0700
     44 H44       -13.3641   -2.2755   51.2643 H       1  ZINC000461336108    0.0700
     45 H45       -12.6567    0.2072   52.2704 H       1  ZINC000461336108    0.0700
     46 H46       -14.0546   -0.7295   52.8700 H       1  ZINC000461336108    0.0600
     47 H47       -13.0249   -0.9691   54.8963 H       1  ZINC000461336108    0.0700
     48 H48       -11.6270   -0.0324   54.2967 H       1  ZINC000461336108    0.0700
     49 H49       -11.5333   -4.2715   58.0276 H       1  ZINC000461336108    0.1200
     50 H50       -11.5240   -3.3129   59.5275 H       1  ZINC000461336108    0.1000
     51 H51       -13.2446   -0.9284   58.2274 H       1  ZINC000461336108    0.1400
     52 H52       -15.7782   -0.9453   57.9771 H       1  ZINC000461336108    0.1500
     53 H53       -16.8110   -3.2631   57.9694 H       1  ZINC000461336108    0.1700
@<TRIPOS>BOND
     1     1     2    1
     2     1    28    1
     3     1    29    1
     4     1    30    1
     5     2     3    1
     6     2    10    1
     7     2     4    1
     8     4     5    2
     9     4     6   am
    10     6     7    1
    11     6     8    1
    12     7    31    1
    13     7    32    1
    14     7    33    1
    15     8     9    1
    16     8    34    1
    17     8    35    1
    18     9    10    1
    19     9    36    1
    20     9    37    1
    21    10    11    1
    22    11    21    1
    23    11    12    2
    24    12    13    1
    25    13    14    2
    26    14    15    1
    27    14    21    1
    28    15    16    1
    29    15    38    1
    30    15    39    1
    31    16    20    1
    32    16    17    1
    33    16    40    1
    34    17    18    1
    35    17    41    1
    36    17    42    1
    37    18    19    1
    38    18    43    1
    39    18    44    1
    40    19    20    1
    41    19    45    1
    42    19    46    1
    43    20    47    1
    44    20    48    1
    45    21    22    1
    46    22    23    1
    47    22    49    1
    48    22    50    1
    49    23    27    1
    50    23    24    2
    51    24    25    1
    52    24    51    1
    53    25    26    2
    54    25    52    1
    55    26    27    1
    56    26    53    1
@<TRIPOS>SUBSTRUCTURE
     1 ZINC000461336108        1 TEMP              0 ****  ****    0 ROOT


##########                                Name:    ZINC000329637067
##########                DOCK_Rotatable_Bonds:                   5
##########                         Heavy_Atoms:                  26
##########                    Molecular_Weight:             362.429
##########                DOCK_Rotatable_Bonds:                   5
##########                       Formal_Charge:           0.0199998
##########                     HBond_Acceptors:                   8
##########                        HBond_Donors:                   0
##########                         Heavy_Atoms:                  26
##########                          Grid_Score:          -31.551613
##########                     Grid_vdw_energy:          -30.449659
##########                      Grid_es_energy:           -1.101953
##########           Internal_energy_repulsive:           27.435108

@<TRIPOS>MOLECULE
ZINC000329637067
 52 54 1 0 0
SMALL
USER_CHARGES


@<TRIPOS>ATOM
      1 C1        -11.1838    0.4406   59.1579 C.3     1  ZINC000329637067   -0.1300
      2 C2        -10.4283   -0.3167   60.2194 C.2     1  ZINC000329637067    0.2200
      3 C3        -10.0216    0.3115   61.3554 C.2     1  ZINC000329637067   -0.2900
      4 C4         -9.3226   -0.4176   62.3220 C.2     1  ZINC000329637067    0.2800
      5 C5         -8.8618    0.2555   63.5891 C.3     1  ZINC000329637067   -0.1200
      6 N6         -9.0680   -1.6949   62.1225 N.2     1  ZINC000329637067   -0.5500
      7 C7         -9.4698   -2.3061   61.0054 C.2     1  ZINC000329637067    0.6400
      8 O8         -9.2215   -3.4893   60.8451 O.2     1  ZINC000329637067   -0.5300
      9 N9        -10.1499   -1.6365   60.0561 N.am    1  ZINC000329637067   -0.5000
     10 C10       -10.5805   -2.3292   58.8392 C.3     1  ZINC000329637067    0.0700
     11 C11       -12.0373   -2.6959   58.9586 C.2     1  ZINC000329637067    0.5100
     12 O12       -12.5942   -2.6253   60.0337 O.2     1  ZINC000329637067   -0.5200
     13 N13       -12.7214   -3.1023   57.8707 N.am    1  ZINC000329637067   -0.6100
     14 C14       -14.1421   -3.4631   57.9715 C.3     1  ZINC000329637067    0.1000
     15 C15       -14.9308   -2.6545   56.9368 C.3     1  ZINC000329637067   -0.1400
     16 C16       -14.3226   -2.8768   55.5501 C.3     1  ZINC000329637067   -0.1000
     17 C17       -12.8728   -2.3872   55.5427 C.3     1  ZINC000329637067   -0.1200
     18 H18       -12.8442   -1.3304   55.8085 H       1  ZINC000329637067    0.1000
     19 C19       -12.2851   -2.5759   54.1678 C.2     1  ZINC000329637067    0.5300
     20 O20       -11.6108   -3.5544   53.9257 O.2     1  ZINC000329637067   -0.5300
     21 N21       -12.5089   -1.6572   53.2074 N.am    1  ZINC000329637067   -0.6200
     22 C22       -11.9508   -1.8229   51.8559 C.3     1  ZINC000329637067    0.0800
     23 C23       -13.0823   -1.6342   50.8391 C.3     1  ZINC000329637067    0.0500
     24 O24       -13.7508   -0.3982   51.1028 O.3     1  ZINC000329637067   -0.3800
     25 C25       -14.3838   -0.3368   52.3831 C.3     1  ZINC000329637067    0.0500
     26 C26       -13.3236   -0.4620   53.4775 C.3     1  ZINC000329637067    0.0700
     27 C27       -12.0622   -3.1869   56.5604 C.3     1  ZINC000329637067    0.1200
     28 H28       -12.1301   -0.0618   58.9573 H       1  ZINC000329637067    0.0900
     29 H29       -11.3776    1.4558   59.5042 H       1  ZINC000329637067    0.1000
     30 H30       -10.5902    0.4753   58.2444 H       1  ZINC000329637067    0.0900
     31 H31       -10.2354    1.3590   61.5082 H       1  ZINC000329637067    0.1600
     32 H32        -9.6383    0.1696   64.3492 H       1  ZINC000329637067    0.1000
     33 H33        -7.9503   -0.2247   63.9449 H       1  ZINC000329637067    0.0900
     34 H34        -8.6636    1.3087   63.3896 H       1  ZINC000329637067    0.0900
     35 H35       -10.4400   -1.6744   57.9792 H       1  ZINC000329637067    0.1200
     36 H36        -9.9876   -3.2344   58.7073 H       1  ZINC000329637067    0.1300
     37 H37       -14.2635   -4.5280   57.7729 H       1  ZINC000329637067    0.0800
     38 H38       -14.5078   -3.2320   58.9720 H       1  ZINC000329637067    0.0900
     39 H39       -15.9705   -2.9819   56.9348 H       1  ZINC000329637067    0.0900
     40 H40       -14.8830   -1.5953   57.1896 H       1  ZINC000329637067    0.0700
     41 H41       -14.3483   -3.9393   55.3084 H       1  ZINC000329637067    0.0800
     42 H42       -14.8972   -2.3218   54.8084 H       1  ZINC000329637067    0.0800
     43 H43       -11.1753   -1.0764   51.6849 H       1  ZINC000329637067    0.0800
     44 H44       -11.5281   -2.8223   51.7534 H       1  ZINC000329637067    0.1000
     45 H45       -12.6670   -1.6156   49.8314 H       1  ZINC000329637067    0.1100
     46 H46       -13.7914   -2.4573   50.9263 H       1  ZINC000329637067    0.0600
     47 H47       -14.9047    0.6151   52.4864 H       1  ZINC000329637067    0.1100
     48 H48       -15.0976   -1.1552   52.4760 H       1  ZINC000329637067    0.0600
     49 H49       -13.8084   -0.5581   54.4489 H       1  ZINC000329637067    0.1000
     50 H50       -12.6840    0.4206   53.4715 H       1  ZINC000329637067    0.0800
     51 H51       -11.0549   -2.7761   56.6294 H       1  ZINC000329637067    0.1000
     52 H52       -12.0130   -4.2305   56.2494 H       1  ZINC000329637067    0.0800
@<TRIPOS>BOND
     1     1     2    1
     2     1    28    1
     3     1    29    1
     4     1    30    1
     5     2     9    1
     6     2     3    2
     7     3     4    1
     8     3    31    1
     9     4     5    1
    10     4     6    2
    11     5    32    1
    12     5    33    1
    13     5    34    1
    14     6     7    1
    15     7     8    2
    16     7     9   am
    17     9    10    1
    18    10    11    1
    19    10    35    1
    20    10    36    1
    21    11    12    2
    22    11    13   am
    23    13    27    1
    24    13    14    1
    25    14    15    1
    26    14    37    1
    27    14    38    1
    28    15    16    1
    29    15    39    1
    30    15    40    1
    31    16    17    1
    32    16    41    1
    33    16    42    1
    34    17    18    1
    35    17    19    1
    36    17    27    1
    37    19    20    2
    38    19    21   am
    39    21    26    1
    40    21    22    1
    41    22    23    1
    42    22    43    1
    43    22    44    1
    44    23    24    1
    45    23    45    1
    46    23    46    1
    47    24    25    1
    48    25    26    1
    49    25    47    1
    50    25    48    1
    51    26    49    1
    52    26    50    1
    53    27    51    1
    54    27    52    1
@<TRIPOS>SUBSTRUCTURE
     1 ZINC000329637067        1 TEMP              0 ****  ****    0 ROOT


##########                                Name:    ZINC000521663393
##########                DOCK_Rotatable_Bonds:                   5
##########                         Heavy_Atoms:                  27
##########                    Molecular_Weight:              386.49
##########                DOCK_Rotatable_Bonds:                   5
##########                       Formal_Charge:               -0.02
##########                     HBond_Acceptors:                   6
##########                        HBond_Donors:                   1
##########                         Heavy_Atoms:                  27
##########                          Grid_Score:          -31.530457
##########                     Grid_vdw_energy:          -30.890526
##########                      Grid_es_energy:           -0.639931
##########           Internal_energy_repulsive:           25.481852

@<TRIPOS>MOLECULE
ZINC000521663393
 50 53 1 0 0
SMALL
USER_CHARGES


@<TRIPOS>ATOM
      1 C1        -15.6881   -3.2812   59.3053 C.3     1  ZINC000521663393   -0.1500
      2 C2        -14.8886   -2.7829   58.0997 C.3     1  ZINC000521663393    0.0800
      3 H3        -15.2085   -1.7810   57.8135 H       1  ZINC000521663393    0.0900
      4 O4        -15.0143   -3.6931   56.9939 O.3     1  ZINC000521663393   -0.2900
      5 C5        -13.8476   -3.7106   56.2926 C.ar    1  ZINC000521663393    0.1400
      6 C6        -13.5951   -4.1356   54.9913 C.ar    1  ZINC000521663393   -0.1800
      7 C7        -12.3146   -4.0732   54.4753 C.ar    1  ZINC000521663393    0.1400
      8 F8        -12.0777   -4.4882   53.2117 F       1  ZINC000521663393   -0.1300
      9 C9        -11.2733   -3.5868   55.2477 C.ar    1  ZINC000521663393   -0.1800
     10 C10       -11.5191   -3.1586   56.5402 C.ar    1  ZINC000521663393   -0.0200
     11 C11       -12.7953   -3.2174   57.0542 C.ar    1  ZINC000521663393   -0.2000
     12 C12       -13.3711   -2.8091   58.3998 C.3     1  ZINC000521663393    0.1700
     13 H13       -13.1375   -3.5499   59.1643 H       1  ZINC000521663393    0.1200
     14 N14       -12.8894   -1.4831   58.7947 N.am    1  ZINC000521663393   -0.7200
     15 C15       -12.1486   -1.3403   59.9116 C.2     1  ZINC000521663393    0.5300
     16 O16       -11.8795   -2.3098   60.5888 O.2     1  ZINC000521663393   -0.5000
     17 C17       -11.6546    0.0239   60.3187 C.3     1  ZINC000521663393    0.1200
     18 H18       -12.5052    0.6610   60.5608 H       1  ZINC000521663393    0.0700
     19 C19       -10.7632   -0.1047   61.5271 C.ar    1  ZINC000521663393   -0.0900
     20 C20        -9.7723   -1.0682   61.5557 C.ar    1  ZINC000521663393   -0.0900
     21 C21        -8.9548   -1.1861   62.6641 C.ar    1  ZINC000521663393   -0.1200
     22 C22        -9.1277   -0.3403   63.7437 C.ar    1  ZINC000521663393   -0.1100
     23 C23       -10.1180    0.6238   63.7147 C.ar    1  ZINC000521663393   -0.1200
     24 C24       -10.9328    0.7445   62.6046 C.ar    1  ZINC000521663393   -0.1100
     25 N25       -10.8954    0.6204   59.2116 N.3     1  ZINC000521663393   -0.5300
     26 C26        -9.8184   -0.2704   58.7736 C.3     1  ZINC000521663393    0.0500
     27 C27        -9.3363    0.1423   57.3787 C.3     1  ZINC000521663393   -0.0700
     28 S28        -8.6688    1.8316   57.4749 S.3     1  ZINC000521663393   -0.2700
     29 C29       -10.0226    2.7239   58.2993 C.3     1  ZINC000521663393   -0.0700
     30 C30       -10.4102    1.9558   59.5675 C.3     1  ZINC000521663393    0.0600
     31 H31       -15.5229   -2.6144   60.1516 H       1  ZINC000521663393    0.0800
     32 H32       -16.7491   -3.2965   59.0564 H       1  ZINC000521663393    0.0800
     33 H33       -15.3617   -4.2878   59.5668 H       1  ZINC000521663393    0.0700
     34 H34       -14.4025   -4.5159   54.3830 H       1  ZINC000521663393    0.1400
     35 H35       -10.2730   -3.5421   54.8429 H       1  ZINC000521663393    0.1400
     36 H36       -10.7100   -2.7782   57.1460 H       1  ZINC000521663393    0.1300
     37 H37       -13.1036   -0.7079   58.2525 H       1  ZINC000521663393    0.4000
     38 H38        -9.6373   -1.7290   60.7123 H       1  ZINC000521663393    0.1300
     39 H39        -8.1811   -1.9394   62.6867 H       1  ZINC000521663393    0.1300
     40 H40        -8.4894   -0.4329   64.6099 H       1  ZINC000521663393    0.1200
     41 H41       -10.2534    1.2844   64.5583 H       1  ZINC000521663393    0.1300
     42 H42       -11.7065    1.4978   62.5819 H       1  ZINC000521663393    0.1200
     43 H43        -8.9881   -0.2079   59.4770 H       1  ZINC000521663393    0.0500
     44 H44       -10.1872   -1.2956   58.7407 H       1  ZINC000521663393    0.1000
     45 H45        -8.5562   -0.5412   57.0438 H       1  ZINC000521663393    0.1100
     46 H46       -10.1729    0.1182   56.6802 H       1  ZINC000521663393    0.0900
     47 H47        -9.6909    3.7274   58.5659 H       1  ZINC000521663393    0.1100
     48 H48       -10.8816    2.7846   57.6310 H       1  ZINC000521663393    0.1000
     49 H49       -11.1958    2.4982   60.0936 H       1  ZINC000521663393    0.0800
     50 H50        -9.5388    1.8637   60.2156 H       1  ZINC000521663393    0.0500
@<TRIPOS>BOND
     1     1     2    1
     2     1    31    1
     3     1    32    1
     4     1    33    1
     5     2     3    1
     6     2    12    1
     7     2     4    1
     8     4     5    1
     9     5    11   ar
    10     5     6   ar
    11     6     7   ar
    12     6    34    1
    13     7     8    1
    14     7     9   ar
    15     9    10   ar
    16     9    35    1
    17    10    11   ar
    18    10    36    1
    19    11    12    1
    20    12    13    1
    21    12    14    1
    22    14    15   am
    23    14    37    1
    24    15    16    2
    25    15    17    1
    26    17    18    1
    27    17    19    1
    28    17    25    1
    29    19    24   ar
    30    19    20   ar
    31    20    21   ar
    32    20    38    1
    33    21    22   ar
    34    21    39    1
    35    22    23   ar
    36    22    40    1
    37    23    24   ar
    38    23    41    1
    39    24    42    1
    40    25    30    1
    41    25    26    1
    42    26    27    1
    43    26    43    1
    44    26    44    1
    45    27    28    1
    46    27    45    1
    47    27    46    1
    48    28    29    1
    49    29    30    1
    50    29    47    1
    51    29    48    1
    52    30    49    1
    53    30    50    1
@<TRIPOS>SUBSTRUCTURE
     1 ZINC000521663393        1 TEMP              0 ****  ****    0 ROOT


##########                                Name:    ZINC000446721380
##########                DOCK_Rotatable_Bonds:                   8
##########                         Heavy_Atoms:                  26
##########                    Molecular_Weight:             419.318
##########                DOCK_Rotatable_Bonds:                   8
##########                       Formal_Charge:           0.0199992
##########                     HBond_Acceptors:                   5
##########                        HBond_Donors:                   2
##########                         Heavy_Atoms:                  26
##########                          Grid_Score:          -31.487150
##########                     Grid_vdw_energy:          -30.662569
##########                      Grid_es_energy:           -0.824580
##########           Internal_energy_repulsive:           13.265174

@<TRIPOS>MOLECULE
ZINC000446721380
 49 51 1 0 0
SMALL
USER_CHARGES


@<TRIPOS>ATOM
      1 C1        -11.0992    2.3370   62.6833 C.3     1  ZINC000446721380   -0.1200
      2 C2        -10.5560    1.2202   61.8297 C.ar    1  ZINC000446721380   -0.0300
      3 C3        -10.2318    0.0059   62.4054 C.ar    1  ZINC000446721380   -0.1600
      4 C4         -9.7332   -1.0209   61.6249 C.ar    1  ZINC000446721380   -0.0500
      5 C5         -9.5579   -0.8355   60.2674 C.ar    1  ZINC000446721380   -0.1500
      6 C6         -9.0149   -1.9551   59.4172 C.3     1  ZINC000446721380    0.1900
      7 N7        -10.0683   -2.9460   59.1838 N.am    1  ZINC000446721380   -0.7300
      8 C8        -10.7424   -2.9508   58.0167 C.2     1  ZINC000446721380    0.7100
      9 O9        -10.4752   -2.1337   57.1570 O.2     1  ZINC000446721380   -0.5700
     10 N10       -11.7126   -3.8615   57.8026 N.am    1  ZINC000446721380   -0.6900
     11 C11       -12.4128   -3.8664   56.5904 C.ar    1  ZINC000446721380    0.2000
     12 C12       -11.7207   -3.8387   55.3874 C.ar    1  ZINC000446721380   -0.1200
     13 C13       -12.4145   -3.8441   54.1927 C.ar    1  ZINC000446721380   -0.0800
     14 C14       -13.7967   -3.8771   54.1939 C.ar    1  ZINC000446721380   -0.1300
     15 C15       -14.4897   -3.9044   55.3904 C.ar    1  ZINC000446721380   -0.0700
     16 C16       -13.8019   -3.9049   56.5887 C.ar    1  ZINC000446721380   -0.1300
     17 Br17      -14.7499   -3.9429   58.2244 Br      1  ZINC000446721380   -0.0500
     18 C18        -9.8826    0.3823   59.6871 C.ar    1  ZINC000446721380    0.1500
     19 O19        -9.7114    0.5671   58.3516 O.3     1  ZINC000446721380   -0.3100
     20 C20        -8.6493    1.4334   57.9475 C.3     1  ZINC000446721380    0.0700
     21 C21        -8.9592    2.0093   56.5642 C.3     1  ZINC000446721380   -0.1200
     22 H22        -8.2003    2.7368   56.2762 H       1  ZINC000446721380    0.1000
     23 C23       -10.3648    2.6581   56.5500 C.3     1  ZINC000446721380   -0.1500
     24 C24       -10.9116    2.2176   55.1682 C.3     1  ZINC000446721380    0.0500
     25 O25       -10.3996    0.8763   55.0153 O.3     1  ZINC000446721380   -0.3800
     26 C26        -9.0497    0.8814   55.5182 C.3     1  ZINC000446721380    0.0500
     27 C27       -10.3878    1.4088   60.4714 C.ar    1  ZINC000446721380   -0.2100
     28 H28       -12.1862    2.2678   62.7237 H       1  ZINC000446721380    0.0800
     29 H29       -10.6921    2.2549   63.6912 H       1  ZINC000446721380    0.0700
     30 H30       -10.8119    3.2963   62.2525 H       1  ZINC000446721380    0.0700
     31 H31       -10.3678   -0.1409   63.4668 H       1  ZINC000446721380    0.1300
     32 H32        -9.4804   -1.9685   62.0771 H       1  ZINC000446721380    0.1300
     33 H33        -8.6752   -1.5542   58.4622 H       1  ZINC000446721380    0.0800
     34 H34        -8.1782   -2.4284   59.9309 H       1  ZINC000446721380    0.0800
     35 H35       -10.2807   -3.5988   59.8692 H       1  ZINC000446721380    0.4000
     36 H36       -11.9258   -4.5135   58.4885 H       1  ZINC000446721380    0.4100
     37 H37       -10.6411   -3.8124   55.3854 H       1  ZINC000446721380    0.1500
     38 H38       -11.8764   -3.8220   53.2565 H       1  ZINC000446721380    0.1300
     39 H39       -14.3364   -3.8813   53.2585 H       1  ZINC000446721380    0.1300
     40 H40       -15.5694   -3.9295   55.3881 H       1  ZINC000446721380    0.1400
     41 H41        -8.5508    2.2471   58.6661 H       1  ZINC000446721380    0.0700
     42 H42        -7.7169    0.8703   57.9061 H       1  ZINC000446721380    0.0700
     43 H43       -10.9832    2.2642   57.3566 H       1  ZINC000446721380    0.0800
     44 H44       -10.2927    3.7439   56.6117 H       1  ZINC000446721380    0.0900
     45 H45       -12.0016    2.2145   55.1700 H       1  ZINC000446721380    0.1000
     46 H46       -10.5299    2.8663   54.3798 H       1  ZINC000446721380    0.0600
     47 H47        -8.3512    1.0708   54.7032 H       1  ZINC000446721380    0.0600
     48 H48        -8.8251   -0.0770   55.9864 H       1  ZINC000446721380    0.0900
     49 H49       -10.6412    2.3577   60.0220 H       1  ZINC000446721380    0.1300
@<TRIPOS>BOND
     1     1     2    1
     2     1    28    1
     3     1    29    1
     4     1    30    1
     5     2    27   ar
     6     2     3   ar
     7     3     4   ar
     8     3    31    1
     9     4     5   ar
    10     4    32    1
    11     5     6    1
    12     5    18   ar
    13     6     7    1
    14     6    33    1
    15     6    34    1
    16     7     8   am
    17     7    35    1
    18     8     9    2
    19     8    10   am
    20    10    11    1
    21    10    36    1
    22    11    16   ar
    23    11    12   ar
    24    12    13   ar
    25    12    37    1
    26    13    14   ar
    27    13    38    1
    28    14    15   ar
    29    14    39    1
    30    15    16   ar
    31    15    40    1
    32    16    17    1
    33    18    19    1
    34    18    27   ar
    35    19    20    1
    36    20    21    1
    37    20    41    1
    38    20    42    1
    39    21    22    1
    40    21    26    1
    41    21    23    1
    42    23    24    1
    43    23    43    1
    44    23    44    1
    45    24    25    1
    46    24    45    1
    47    24    46    1
    48    25    26    1
    49    26    47    1
    50    26    48    1
    51    27    49    1
@<TRIPOS>SUBSTRUCTURE
     1 ZINC000446721380        1 TEMP              0 ****  ****    0 ROOT


##########                                Name:    ZINC000285228948
##########                DOCK_Rotatable_Bonds:                   8
##########                         Heavy_Atoms:                  23
##########                    Molecular_Weight:             339.822
##########                DOCK_Rotatable_Bonds:                   8
##########                       Formal_Charge:           0.0299997
##########                     HBond_Acceptors:                   7
##########                        HBond_Donors:                   3
##########                         Heavy_Atoms:                  23
##########                          Grid_Score:          -31.476553
##########                     Grid_vdw_energy:          -30.924923
##########                      Grid_es_energy:           -0.551631
##########           Internal_energy_repulsive:           24.664196

@<TRIPOS>MOLECULE
ZINC000285228948
 45 46 1 0 0
SMALL
USER_CHARGES


@<TRIPOS>ATOM
      1 C1         -9.5483   -0.5370   58.5705 C.3     1  <0>        -0.1600
      2 C2        -10.5537   -1.4257   59.3057 C.3     1  <0>         0.1800
      3 H3        -11.4568   -1.5274   58.7039 H       1  <0>         0.1100
      4 C4        -10.9014   -0.8001   60.6319 C.ar    1  <0>        -0.0900
      5 C5         -9.9543   -0.0621   61.3172 C.ar    1  <0>        -0.1000
      6 C6        -10.2726    0.5119   62.5335 C.ar    1  <0>        -0.1100
      7 C7        -11.5392    0.3478   63.0652 C.ar    1  <0>        -0.0300
      8 Cl8       -11.9400    1.0689   64.5927 Cl      1  <0>        -0.0700
      9 C9        -12.4867   -0.3909   62.3789 C.ar    1  <0>        -0.1100
     10 C10       -12.1689   -0.9596   61.1599 C.ar    1  <0>        -0.0900
     11 N11        -9.9643   -2.7482   59.5291 N.am    1  <0>        -0.6100
     12 C12        -9.1636   -2.9999   60.7298 C.3     1  <0>         0.0600
     13 C13       -10.1587   -3.7332   58.6300 C.2     1  <0>         0.5200
     14 O14        -9.6695   -4.8277   58.8143 O.2     1  <0>        -0.5200
     15 C15       -10.9838   -3.4749   57.3958 C.3     1  <0>         0.0300
     16 N16       -12.3808   -3.8490   57.6534 N.3     1  <0>        -0.4900
     17 C17       -12.7982   -4.9787   56.7841 C.3     1  <0>         0.0400
     18 C18       -14.3445   -4.8820   56.7952 C.3     1  <0>        -0.1400
     19 C19       -14.5955   -3.3566   56.7887 C.3     1  <0>         0.1100
     20 O20       -14.8463   -2.9008   55.4578 O.3     1  <0>        -0.5400
     21 C21       -15.7571   -3.0138   57.6855 C.2     1  <0>         0.5000
     22 N22       -16.8157   -2.3428   57.1902 N.am    1  <0>        -0.8500
     23 O23       -15.7393   -3.3419   58.8531 O.2     1  <0>        -0.5200
     24 C24       -13.2963   -2.7329   57.3314 C.3     1  <0>         0.0600
     25 H25        -9.9868    0.4470   58.4043 H       1  <0>         0.0700
     26 H26        -8.6452   -0.4353   59.1722 H       1  <0>         0.0600
     27 H27        -9.2968   -0.9895   57.6113 H       1  <0>         0.0700
     28 H28        -8.9655    0.0656   60.9022 H       1  <0>         0.1400
     29 H29        -9.5325    1.0881   63.0690 H       1  <0>         0.1300
     30 H30       -13.4755   -0.5196   62.7936 H       1  <0>         0.1400
     31 H31       -12.9085   -1.5360   60.6240 H       1  <0>         0.1300
     32 H32        -9.8176   -3.3143   61.5432 H       1  <0>         0.0600
     33 H33        -8.4367   -3.7856   60.5237 H       1  <0>         0.0800
     34 H34        -8.6409   -2.0873   61.0159 H       1  <0>         0.0800
     35 H35       -10.9324   -2.4166   57.1393 H       1  <0>         0.1100
     36 H36       -10.5953   -4.0684   56.5682 H       1  <0>         0.0700
     37 H37       -12.4119   -4.8494   55.7731 H       1  <0>         0.0400
     38 H38       -12.4691   -5.9292   57.2042 H       1  <0>         0.1200
     39 H39       -14.7664   -5.3462   55.9037 H       1  <0>         0.0900
     40 H40       -14.7529   -5.3363   57.6979 H       1  <0>         0.0900
     41 H41       -15.7427   -3.0806   55.1428 H       1  <0>         0.3800
     42 H42       -17.5629   -2.1211   57.7677 H       1  <0>         0.4000
     43 H43       -16.8305   -2.0814   56.2562 H       1  <0>         0.4100
     44 H44       -13.5092   -2.1558   58.2313 H       1  <0>         0.1100
     45 H45       -12.8475   -2.0913   56.5731 H       1  <0>         0.0700
@<TRIPOS>BOND
     1     1     2    1
     2     1    25    1
     3     1    26    1
     4     1    27    1
     5     2     3    1
     6     2     4    1
     7     2    11    1
     8     4    10   ar
     9     4     5   ar
    10     5     6   ar
    11     5    28    1
    12     6     7   ar
    13     6    29    1
    14     7     8    1
    15     7     9   ar
    16     9    10   ar
    17     9    30    1
    18    10    31    1
    19    11    12    1
    20    11    13   am
    21    12    32    1
    22    12    33    1
    23    12    34    1
    24    13    14    2
    25    13    15    1
    26    15    16    1
    27    15    35    1
    28    15    36    1
    29    16    24    1
    30    16    17    1
    31    17    18    1
    32    17    37    1
    33    17    38    1
    34    18    19    1
    35    18    39    1
    36    18    40    1
    37    19    20    1
    38    19    21    1
    39    19    24    1
    40    20    41    1
    41    21    22   am
    42    21    23    2
    43    22    42    1
    44    22    43    1
    45    24    44    1
    46    24    45    1
@<TRIPOS>SUBSTRUCTURE
     1 <0>         1 TEMP              0 ****  ****    0 ROOT


##########                                Name:    ZINC000281257088
##########                DOCK_Rotatable_Bonds:                   8
##########                         Heavy_Atoms:                  27
##########                    Molecular_Weight:             395.541
##########                DOCK_Rotatable_Bonds:                   8
##########                       Formal_Charge:          -0.0200005
##########                     HBond_Acceptors:                   7
##########                        HBond_Donors:                   1
##########                         Heavy_Atoms:                  27
##########                          Grid_Score:          -31.473539
##########                     Grid_vdw_energy:          -30.814568
##########                      Grid_es_energy:           -0.658972
##########           Internal_energy_repulsive:           22.334795

@<TRIPOS>MOLECULE
ZINC000281257088
 57 58 1 0 0
SMALL
USER_CHARGES


@<TRIPOS>ATOM
      1 C1         -9.2504   -3.4316   59.9216 C.3     1  ZINC000281257088   -0.0700
      2 C2         -9.7923   -2.0891   60.3400 C.2     1  ZINC000281257088    0.1000
      3 N3         -9.8854   -1.6483   61.5683 N.2     1  ZINC000281257088   -0.3000
      4 N4        -10.4384   -0.3617   61.5308 N.pl3   1  ZINC000281257088   -0.3700
      5 C5        -10.7134    0.4922   62.6891 C.3     1  ZINC000281257088    0.1500
      6 C6         -9.4098    1.1300   63.1735 C.3     1  ZINC000281257088   -0.6400
      7 S7         -9.1553    0.7306   64.9246 S.o2    1  ZINC000281257088    2.4300
      8 C8         -7.7557    1.8018   65.3537 C.3     1  ZINC000281257088   -0.6500
      9 O9        -10.2950    1.1595   65.6570 O.2     1  ZINC000281257088   -0.9300
     10 O10        -8.7361   -0.6235   65.0238 O.2     1  ZINC000281257088   -0.9300
     11 C11       -10.6729   -0.0479   60.2395 C.2     1  ZINC000281257088    0.0900
     12 C12       -11.2639    1.2421   59.7319 C.3     1  ZINC000281257088   -0.1000
     13 C13       -10.2772   -1.0968   59.4817 C.2     1  ZINC000281257088   -0.2300
     14 C14       -10.3537   -1.1839   57.9792 C.3     1  ZINC000281257088    0.1400
     15 N15       -11.5638   -1.9213   57.5924 N.3     1  ZINC000281257088   -0.6700
     16 C16       -11.4471   -2.4442   56.2246 C.3     1  ZINC000281257088    0.1400
     17 H17       -10.5324   -3.0305   56.1367 H       1  ZINC000281257088    0.0500
     18 C18       -11.4033   -1.2958   55.2497 C.ar    1  ZINC000281257088   -0.0800
     19 C19       -12.1127   -0.1389   55.5130 C.ar    1  ZINC000281257088   -0.0600
     20 C20       -12.0733    0.9149   54.6197 C.ar    1  ZINC000281257088   -0.1600
     21 C21       -11.3225    0.8117   53.4610 C.ar    1  ZINC000281257088    0.1000
     22 F22       -11.2828    1.8414   52.5872 F       1  ZINC000281257088   -0.1400
     23 C23       -10.6120   -0.3473   53.1986 C.ar    1  ZINC000281257088   -0.1600
     24 C24       -10.6491   -1.3979   54.0956 C.ar    1  ZINC000281257088   -0.0900
     25 C25       -12.6538   -3.3318   55.9132 C.3     1  ZINC000281257088   -0.0600
     26 C26       -13.9423   -2.5385   56.1394 C.3     1  ZINC000281257088   -0.1400
     27 C27       -12.5867   -3.7906   54.4551 C.3     1  ZINC000281257088   -0.1400
     28 C28       -12.6390   -4.5539   56.8336 C.3     1  ZINC000281257088   -0.1500
     29 H29        -8.1764   -3.3532   59.7526 H       1  ZINC000281257088    0.0800
     30 H30        -9.4422   -4.1619   60.7077 H       1  ZINC000281257088    0.0700
     31 H31        -9.7406   -3.7507   59.0018 H       1  ZINC000281257088    0.0800
     32 H32       -11.4169    1.2746   62.4047 H       1  ZINC000281257088    0.1100
     33 H33       -11.1431   -0.1093   63.4901 H       1  ZINC000281257088    0.1100
     34 H34        -8.5762    0.7427   62.5876 H       1  ZINC000281257088    0.1400
     35 H35        -9.4675    2.2117   63.0522 H       1  ZINC000281257088    0.1400
     36 H36        -8.0313    2.8433   65.1882 H       1  ZINC000281257088    0.1300
     37 H37        -7.4955    1.6569   66.4023 H       1  ZINC000281257088    0.1300
     38 H38        -6.8995    1.5488   64.7286 H       1  ZINC000281257088    0.1300
     39 H39       -10.4640    1.9563   59.5367 H       1  ZINC000281257088    0.0800
     40 H40       -11.8141    1.0519   58.8104 H       1  ZINC000281257088    0.0900
     41 H41       -11.9413    1.6512   60.4816 H       1  ZINC000281257088    0.0700
     42 H42       -10.3905   -0.1789   57.5585 H       1  ZINC000281257088    0.0800
     43 H43        -9.4743   -1.7044   57.6001 H       1  ZINC000281257088    0.0300
     44 H44       -11.7602   -2.6630   58.2476 H       1  ZINC000281257088    0.3400
     45 H45       -12.6983   -0.0587   56.4169 H       1  ZINC000281257088    0.1400
     46 H46       -12.6283    1.8183   54.8253 H       1  ZINC000281257088    0.1300
     47 H47       -10.0263   -0.4289   52.2949 H       1  ZINC000281257088    0.1300
     48 H48       -10.0946   -2.3020   53.8913 H       1  ZINC000281257088    0.1300
     49 H49       -13.9528   -1.6679   55.4837 H       1  ZINC000281257088    0.0600
     50 H50       -14.8020   -3.1708   55.9175 H       1  ZINC000281257088    0.0500
     51 H51       -13.9901   -2.2116   57.1781 H       1  ZINC000281257088    0.0600
     52 H52       -11.6687   -4.3557   54.2940 H       1  ZINC000281257088    0.0500
     53 H53       -13.4463   -4.4229   54.2333 H       1  ZINC000281257088    0.0600
     54 H54       -12.5972   -2.9199   53.7995 H       1  ZINC000281257088    0.0600
     55 H55       -12.7651   -4.2318   57.8672 H       1  ZINC000281257088    0.0500
     56 H56       -13.4535   -5.2246   56.5601 H       1  ZINC000281257088    0.0600
     57 H57       -11.6878   -5.0759   56.7292 H       1  ZINC000281257088    0.0600
@<TRIPOS>BOND
     1     1     2    1
     2     1    29    1
     3     1    30    1
     4     1    31    1
     5     2    13    1
     6     2     3    2
     7     3     4    1
     8     4     5    1
     9     4    11    1
    10     5     6    1
    11     5    32    1
    12     5    33    1
    13     6     7    1
    14     6    34    1
    15     6    35    1
    16     7     8    1
    17     7     9    2
    18     7    10    2
    19     8    36    1
    20     8    37    1
    21     8    38    1
    22    11    12    1
    23    11    13    2
    24    12    39    1
    25    12    40    1
    26    12    41    1
    27    13    14    1
    28    14    15    1
    29    14    42    1
    30    14    43    1
    31    15    16    1
    32    15    44    1
    33    16    17    1
    34    16    18    1
    35    16    25    1
    36    18    24   ar
    37    18    19   ar
    38    19    20   ar
    39    19    45    1
    40    20    21   ar
    41    20    46    1
    42    21    22    1
    43    21    23   ar
    44    23    24   ar
    45    23    47    1
    46    24    48    1
    47    25    26    1
    48    25    27    1
    49    25    28    1
    50    26    49    1
    51    26    50    1
    52    26    51    1
    53    27    52    1
    54    27    53    1
    55    27    54    1
    56    28    55    1
    57    28    56    1
    58    28    57    1
@<TRIPOS>SUBSTRUCTURE
     1 ZINC000281257088        1 TEMP              0 ****  ****    0 ROOT


##########                                Name:    ZINC001248546333
##########                DOCK_Rotatable_Bonds:                   6
##########                         Heavy_Atoms:                  27
##########                    Molecular_Weight:             378.397
##########                DOCK_Rotatable_Bonds:                   6
##########                       Formal_Charge:         3.94881e-07
##########                     HBond_Acceptors:                   8
##########                        HBond_Donors:                   1
##########                         Heavy_Atoms:                  27
##########                          Grid_Score:          -31.456099
##########                     Grid_vdw_energy:          -31.112452
##########                      Grid_es_energy:           -0.343646
##########           Internal_energy_repulsive:           10.161172

@<TRIPOS>MOLECULE
ZINC001248546333
 48 50 1 0 0
SMALL
USER_CHARGES


@<TRIPOS>ATOM
      1 C1        -11.7733   -3.0943   52.2604 C.3     1  ZINC001248546333   -0.1200
      2 C2        -11.0547   -2.0546   53.0811 C.ar    1  ZINC001248546333   -0.0800
      3 C3        -11.2695   -1.9831   54.4457 C.ar    1  ZINC001248546333   -0.1200
      4 C4        -10.6136   -1.0314   55.2064 C.ar    1  ZINC001248546333   -0.1100
      5 C5         -9.7401   -0.1475   54.6073 C.ar    1  ZINC001248546333   -0.1100
      6 C6         -9.5186   -0.2146   53.2312 C.ar    1  ZINC001248546333   -0.0600
      7 C7         -8.5840    0.7294   52.5828 C.2     1  ZINC001248546333   -0.0600
      8 C8         -8.7153    2.0049   52.8564 C.2     1  ZINC001248546333   -0.1700
      9 C9         -7.8462    3.0746   52.2556 C.3     1  ZINC001248546333    0.1500
     10 N10        -6.7128    2.4434   51.5644 N.am    1  ZINC001248546333   -0.6300
     11 C11        -5.4613    2.9297   51.6819 C.2     1  ZINC001248546333    0.7200
     12 O12        -5.2521    3.9096   52.3705 O.2     1  ZINC001248546333   -0.5800
     13 N13        -4.4418    2.3297   51.0361 N.am    1  ZINC001248546333   -0.7500
     14 C14        -3.0814    2.8582   51.1639 C.3     1  ZINC001248546333    0.2000
     15 C15        -2.3432    2.6646   49.8645 C.2     1  ZINC001248546333    0.0700
     16 C16        -2.5266    1.6520   48.9858 C.2     1  ZINC001248546333   -0.2000
     17 C17        -1.6464    1.8456   47.9162 C.2     1  ZINC001248546333   -0.0200
     18 C18        -1.5132    0.9535   46.7089 C.3     1  ZINC001248546333    0.5600
     19 F19        -2.6152    1.1399   45.8675 F       1  ZINC001248546333   -0.1700
     20 F20        -0.3397    1.2751   46.0186 F       1  ZINC001248546333   -0.1700
     21 F21        -1.4611   -0.3827   47.1199 F       1  ZINC001248546333   -0.1600
     22 N22        -0.9593    2.9353   48.1444 N.2     1  ZINC001248546333   -0.2200
     23 N23        -1.3849    3.4733   49.3658 N.pl3   1  ZINC001248546333   -0.3400
     24 C24        -0.8734    4.6935   49.9951 C.3     1  ZINC001248546333    0.0900
     25 C25        -6.9998    1.2584   50.7377 C.3     1  ZINC001248546333    0.1300
     26 C26        -7.5454    0.1633   51.6607 C.3     1  ZINC001248546333   -0.1000
     27 C27       -10.1794   -1.1797   52.4706 C.ar    1  ZINC001248546333   -0.1100
     28 H28       -11.1751   -4.0048   52.2228 H       1  ZINC001248546333    0.0700
     29 H29       -12.7393   -3.3128   52.7157 H       1  ZINC001248546333    0.0700
     30 H30       -11.9253   -2.7174   51.2489 H       1  ZINC001248546333    0.0700
     31 H31       -11.9523   -2.6728   54.9194 H       1  ZINC001248546333    0.1200
     32 H32       -10.7862   -0.9803   56.2712 H       1  ZINC001248546333    0.1200
     33 H33        -9.2290    0.5951   55.2021 H       1  ZINC001248546333    0.1200
     34 H34        -9.4882    2.3028   53.5494 H       1  ZINC001248546333    0.1200
     35 H35        -8.4280    3.6588   51.5428 H       1  ZINC001248546333    0.0800
     36 H36        -7.4737    3.7273   53.0451 H       1  ZINC001248546333    0.0800
     37 H37        -4.6087    1.5478   50.4868 H       1  ZINC001248546333    0.4000
     38 H38        -3.1256    3.9211   51.4019 H       1  ZINC001248546333    0.1000
     39 H39        -2.5593    2.3289   51.9609 H       1  ZINC001248546333    0.0900
     40 H40        -3.2283    0.8380   49.0920 H       1  ZINC001248546333    0.1700
     41 H41        -1.4594    5.5489   49.6588 H       1  ZINC001248546333    0.0900
     42 H42        -0.9508    4.6033   51.0786 H       1  ZINC001248546333    0.1000
     43 H43         0.1706    4.8360   49.7160 H       1  ZINC001248546333    0.1000
     44 H44        -7.7411    1.5091   49.9789 H       1  ZINC001248546333    0.0700
     45 H45        -6.0837    0.9124   50.2589 H       1  ZINC001248546333    0.1000
     46 H46        -6.7267   -0.2568   52.2449 H       1  ZINC001248546333    0.0800
     47 H47        -7.9958   -0.6250   51.0576 H       1  ZINC001248546333    0.0900
     48 H48       -10.0123   -1.2368   51.4051 H       1  ZINC001248546333    0.1200
@<TRIPOS>BOND
     1     1     2    1
     2     1    28    1
     3     1    29    1
     4     1    30    1
     5     2    27   ar
     6     2     3   ar
     7     3     4   ar
     8     3    31    1
     9     4     5   ar
    10     4    32    1
    11     5     6   ar
    12     5    33    1
    13     6     7    1
    14     6    27   ar
    15     7    26    1
    16     7     8    2
    17     8     9    1
    18     8    34    1
    19     9    10    1
    20     9    35    1
    21     9    36    1
    22    10    11   am
    23    10    25    1
    24    11    12    2
    25    11    13   am
    26    13    14    1
    27    13    37    1
    28    14    15    1
    29    14    38    1
    30    14    39    1
    31    15    23    1
    32    15    16    2
    33    16    17    1
    34    16    40    1
    35    17    18    1
    36    17    22    2
    37    18    19    1
    38    18    20    1
    39    18    21    1
    40    22    23    1
    41    23    24    1
    42    24    41    1
    43    24    42    1
    44    24    43    1
    45    25    26    1
    46    25    44    1
    47    25    45    1
    48    26    46    1
    49    26    47    1
    50    27    48    1
@<TRIPOS>SUBSTRUCTURE
     1 ZINC001248546333        1 TEMP              0 ****  ****    0 ROOT


##########                                Name:    ZINC000130059363
##########                DOCK_Rotatable_Bonds:                   4
##########                         Heavy_Atoms:                  29
##########                    Molecular_Weight:             389.497
##########                DOCK_Rotatable_Bonds:                   4
##########                       Formal_Charge:          -0.0100003
##########                     HBond_Acceptors:                   5
##########                        HBond_Donors:                   0
##########                         Heavy_Atoms:                  29
##########                          Grid_Score:          -31.454399
##########                     Grid_vdw_energy:          -31.967319
##########                      Grid_es_energy:            0.512921
##########           Internal_energy_repulsive:           29.615448

@<TRIPOS>MOLECULE
ZINC000130059363
 56 60 1 0 0
SMALL
USER_CHARGES


@<TRIPOS>ATOM
      1 C1        -12.0568    1.0222   53.5432 C.3     1  ZINC000130059363   -0.1200
      2 C2        -10.8941    0.2289   53.0049 C.ar    1  ZINC000130059363    0.1900
      3 N3         -9.7984    0.8525   52.6312 N.ar    1  ZINC000130059363   -0.4800
      4 C4         -8.7489    0.1953   52.1514 C.ar    1  ZINC000130059363    0.2000
      5 C5         -7.5381    0.9475   51.7450 C.ar    1  ZINC000130059363   -0.0600
      6 C6         -6.4222    0.2676   51.2585 C.ar    1  ZINC000130059363   -0.1000
      7 C7         -5.2980    0.9733   50.8813 C.ar    1  ZINC000130059363   -0.1200
      8 C8         -5.2764    2.3526   50.9856 C.ar    1  ZINC000130059363   -0.1000
      9 C9         -6.3803    3.0326   51.4681 C.ar    1  ZINC000130059363   -0.1300
     10 C10        -7.5125    2.3381   51.8425 C.ar    1  ZINC000130059363   -0.0700
     11 C11        -8.7711   -1.1935   52.0253 C.ar    1  ZINC000130059363   -0.1800
     12 C12        -9.9026   -1.8869   52.4064 C.ar    1  ZINC000130059363   -0.0400
     13 C13       -10.9894   -1.1615   52.9134 C.ar    1  ZINC000130059363   -0.1900
     14 C14       -12.2224   -1.8568   53.3353 C.2     1  ZINC000130059363    0.5700
     15 O15       -13.0204   -2.2389   52.5015 O.2     1  ZINC000130059363   -0.5200
     16 N16       -12.4627   -2.0678   54.6446 N.am    1  ZINC000130059363   -0.6000
     17 C17       -13.6813   -2.7634   55.0825 C.3     1  ZINC000130059363    0.1000
     18 C18       -13.2724   -3.9485   55.9624 C.3     1  ZINC000130059363   -0.1500
     19 C19       -12.3814   -3.4645   57.1007 C.3     1  ZINC000130059363    0.1500
     20 H20       -12.0770   -4.3323   57.6860 H       1  ZINC000130059363    0.0700
     21 C21       -11.1220   -2.7915   56.5584 C.3     1  ZINC000130059363   -0.1100
     22 H22       -10.5230   -3.5120   56.0017 H       1  ZINC000130059363    0.1000
     23 C23       -10.3209   -2.2501   57.7531 C.3     1  ZINC000130059363   -0.1200
     24 C24       -11.1160   -1.1029   58.3816 C.3     1  ZINC000130059363   -0.1400
     25 C25       -12.5438   -1.5165   58.5932 C.2     1  ZINC000130059363    0.5200
     26 O26       -13.2247   -0.8610   59.3531 O.2     1  ZINC000130059363   -0.5400
     27 N27       -13.0992   -2.5548   57.9796 N.am    1  ZINC000130059363   -0.5700
     28 C28       -14.5187   -2.8239   58.2218 C.3     1  ZINC000130059363    0.0700
     29 C29       -14.9024   -4.2317   58.6822 C.3     1  ZINC000130059363   -0.1800
     30 C30       -14.9556   -3.0634   59.6685 C.3     1  ZINC000130059363   -0.1600
     31 C31       -11.5102   -1.6135   55.6652 C.3     1  ZINC000130059363    0.1100
     32 H32       -12.0126    1.0380   54.6322 H       1  ZINC000130059363    0.0800
     33 H33       -12.0077    2.0424   53.1627 H       1  ZINC000130059363    0.0800
     34 H34       -12.9908    0.5599   53.2241 H       1  ZINC000130059363    0.1000
     35 H35        -6.4377   -0.8093   51.1773 H       1  ZINC000130059363    0.1300
     36 H36        -4.4331    0.4477   50.5043 H       1  ZINC000130059363    0.1300
     37 H37        -4.3942    2.9007   50.6896 H       1  ZINC000130059363    0.1300
     38 H38        -6.3576    4.1094   51.5476 H       1  ZINC000130059363    0.1300
     39 H39        -8.3738    2.8700   52.2190 H       1  ZINC000130059363    0.1400
     40 H40        -7.9133   -1.7203   51.6338 H       1  ZINC000130059363    0.1400
     41 H41        -9.9478   -2.9625   52.3195 H       1  ZINC000130059363    0.1400
     42 H42       -14.3082   -2.0800   55.6554 H       1  ZINC000130059363    0.0700
     43 H43       -14.2305   -3.1242   54.2129 H       1  ZINC000130059363    0.0900
     44 H44       -14.1653   -4.4178   56.3756 H       1  ZINC000130059363    0.0900
     45 H45       -12.7280   -4.6758   55.3602 H       1  ZINC000130059363    0.0800
     46 H46       -10.1753   -3.0421   58.4876 H       1  ZINC000130059363    0.0800
     47 H47        -9.3534   -1.8827   57.4110 H       1  ZINC000130059363    0.0900
     48 H48       -10.6708   -0.8379   59.3406 H       1  ZINC000130059363    0.1000
     49 H49       -11.0850   -0.2372   57.7201 H       1  ZINC000130059363    0.1000
     50 H50       -15.2148   -2.3014   57.5659 H       1  ZINC000130059363    0.1100
     51 H51       -15.8512   -4.6356   58.3288 H       1  ZINC000130059363    0.1100
     52 H52       -14.0986   -4.9577   58.8047 H       1  ZINC000130059363    0.1000
     53 H53       -14.1867   -3.0206   60.4400 H       1  ZINC000130059363    0.1000
     54 H54       -15.9393   -2.6986   59.9642 H       1  ZINC000130059363    0.1000
     55 H55       -10.6190   -1.2140   55.1813 H       1  ZINC000130059363    0.1000
     56 H56       -11.9770   -0.8360   56.2701 H       1  ZINC000130059363    0.0700
@<TRIPOS>BOND
     1     1     2    1
     2     1    32    1
     3     1    33    1
     4     1    34    1
     5     2    13   ar
     6     2     3   ar
     7     3     4   ar
     8     4     5    1
     9     4    11   ar
    10     5    10   ar
    11     5     6   ar
    12     6     7   ar
    13     6    35    1
    14     7     8   ar
    15     7    36    1
    16     8     9   ar
    17     8    37    1
    18     9    10   ar
    19     9    38    1
    20    10    39    1
    21    11    12   ar
    22    11    40    1
    23    12    13   ar
    24    12    41    1
    25    13    14    1
    26    14    15    2
    27    14    16   am
    28    16    31    1
    29    16    17    1
    30    17    18    1
    31    17    42    1
    32    17    43    1
    33    18    19    1
    34    18    44    1
    35    18    45    1
    36    19    20    1
    37    19    27    1
    38    19    21    1
    39    21    22    1
    40    21    23    1
    41    21    31    1
    42    23    24    1
    43    23    46    1
    44    23    47    1
    45    24    25    1
    46    24    48    1
    47    24    49    1
    48    25    26    2
    49    25    27   am
    50    27    28    1
    51    28    30    1
    52    28    29    1
    53    28    50    1
    54    29    30    1
    55    29    51    1
    56    29    52    1
    57    30    53    1
    58    30    54    1
    59    31    55    1
    60    31    56    1
@<TRIPOS>SUBSTRUCTURE
     1 ZINC000130059363        1 TEMP              0 ****  ****    0 ROOT


##########                                Name:    ZINC001058772245
##########                DOCK_Rotatable_Bonds:                  11
##########                         Heavy_Atoms:                  22
##########                    Molecular_Weight:             335.375
##########                DOCK_Rotatable_Bonds:                  11
##########                       Formal_Charge:          0.00999964
##########                     HBond_Acceptors:                   9
##########                        HBond_Donors:                   2
##########                         Heavy_Atoms:                  22
##########                          Grid_Score:          -31.454182
##########                     Grid_vdw_energy:          -28.818319
##########                      Grid_es_energy:           -2.635862
##########           Internal_energy_repulsive:           64.103806

@<TRIPOS>MOLECULE
ZINC001058772245
 41 41 1 0 0
SMALL
USER_CHARGES


@<TRIPOS>ATOM
      1 C1         -9.6970    2.2114   58.6586 C.3     1  ZINC001058772245   -0.1700
      2 C2        -10.3166    0.9839   57.9876 C.3     1  ZINC001058772245   -0.1400
      3 C3        -10.3219    1.1804   56.4703 C.3     1  ZINC001058772245   -0.1500
      4 C4         -9.5073   -0.2395   58.3329 C.2     1  ZINC001058772245    0.5300
      5 O5         -8.7709   -0.7328   57.5051 O.2     1  ZINC001058772245   -0.5200
      6 N6         -9.6017   -0.7853   59.5616 N.am    1  ZINC001058772245   -0.5900
      7 C7        -10.4912   -0.1893   60.5614 C.3     1  ZINC001058772245    0.0800
      8 C8        -10.0102   -0.5695   61.9632 C.3     1  ZINC001058772245    0.0400
      9 O9        -10.9205   -0.0524   62.9358 O.3     1  ZINC001058772245   -0.5700
     10 C10        -8.8150   -1.9746   59.8972 C.3     1  ZINC001058772245    0.1100
     11 C11        -9.7161   -3.2104   59.8570 C.3     1  ZINC001058772245    0.1000
     12 N12       -10.5348   -3.1785   58.6426 N.am    1  ZINC001058772245   -0.7100
     13 C13       -10.8272   -4.3247   57.9967 C.2     1  ZINC001058772245    0.6000
     14 O14       -10.4126   -5.3858   58.4228 O.2     1  ZINC001058772245   -0.5300
     15 C15       -11.6487   -4.2925   56.7748 C.2     1  ZINC001058772245    0.0000
     16 C16       -11.2860   -3.6228   55.6576 C.2     1  ZINC001058772245   -0.2200
     17 S17       -12.4989   -3.8313   54.4712 S.3     1  ZINC001058772245    0.2300
     18 C18       -13.4198   -4.7998   55.5343 C.2     1  ZINC001058772245    0.0000
     19 N19       -12.8190   -4.9265   56.6649 N.2     1  ZINC001058772245   -0.4400
     20 C20       -11.7526    0.8022   58.4833 C.3     1  ZINC001058772245    0.2900
     21 F21       -12.6111    1.6128   57.7328 F       1  ZINC001058772245   -0.1900
     22 F22       -12.1302   -0.5371   58.3378 F       1  ZINC001058772245   -0.2000
     23 H23       -10.4179    3.0290   58.6573 H       1  ZINC001058772245    0.0800
     24 H24        -9.4272    1.9665   59.6859 H       1  ZINC001058772245    0.0700
     25 H25        -8.8043    2.5133   58.1107 H       1  ZINC001058772245    0.0900
     26 H26        -9.3119    1.0464   56.0830 H       1  ZINC001058772245    0.0800
     27 H27       -10.9870    0.4488   56.0115 H       1  ZINC001058772245    0.0700
     28 H28       -10.6706    2.1861   56.2354 H       1  ZINC001058772245    0.0900
     29 H29       -10.4814    0.8956   60.4557 H       1  ZINC001058772245    0.0900
     30 H30       -11.5054   -0.5597   60.4123 H       1  ZINC001058772245    0.1200
     31 H31        -9.9643   -1.6551   62.0495 H       1  ZINC001058772245    0.0600
     32 H32        -9.0190   -0.1492   62.1336 H       1  ZINC001058772245    0.0700
     33 H33       -11.0127    0.9100   62.9158 H       1  ZINC001058772245    0.3800
     34 H34        -8.0064   -2.0910   59.1756 H       1  ZINC001058772245    0.1000
     35 H35        -8.3961   -1.8628   60.8973 H       1  ZINC001058772245    0.0900
     36 H36        -9.1000   -4.1096   59.8563 H       1  ZINC001058772245    0.0700
     37 H37       -10.3652   -3.2154   60.7327 H       1  ZINC001058772245    0.0700
     38 H38       -10.8665   -2.3325   58.3033 H       1  ZINC001058772245    0.4100
     39 H39       -10.3786   -3.0501   55.5349 H       1  ZINC001058772245    0.1900
     40 H40       -14.3722   -5.2466   55.2904 H       1  ZINC001058772245    0.2100
     41 H41       -11.8127    1.0845   59.5343 H       1  ZINC001058772245    0.1200
@<TRIPOS>BOND
     1     1     2    1
     2     1    23    1
     3     1    24    1
     4     1    25    1
     5     2     3    1
     6     2     4    1
     7     2    20    1
     8     3    26    1
     9     3    27    1
    10     3    28    1
    11     4     5    2
    12     4     6   am
    13     6     7    1
    14     6    10    1
    15     7     8    1
    16     7    29    1
    17     7    30    1
    18     8     9    1
    19     8    31    1
    20     8    32    1
    21     9    33    1
    22    10    11    1
    23    10    34    1
    24    10    35    1
    25    11    12    1
    26    11    36    1
    27    11    37    1
    28    12    13   am
    29    12    38    1
    30    13    14    2
    31    13    15    1
    32    15    19    1
    33    15    16    2
    34    16    17    1
    35    16    39    1
    36    17    18    1
    37    18    19    2
    38    18    40    1
    39    20    21    1
    40    20    22    1
    41    20    41    1
@<TRIPOS>SUBSTRUCTURE
     1 ZINC001058772245        1 TEMP              0 ****  ****    0 ROOT


##########                                Name:    ZINC000369046711
##########                DOCK_Rotatable_Bonds:                   8
##########                         Heavy_Atoms:                  26
##########                    Molecular_Weight:             367.467
##########                DOCK_Rotatable_Bonds:                   8
##########                       Formal_Charge:        -7.63685e-07
##########                     HBond_Acceptors:                   8
##########                        HBond_Donors:                   1
##########                         Heavy_Atoms:                  26
##########                          Grid_Score:          -31.452122
##########                     Grid_vdw_energy:          -31.625673
##########                      Grid_es_energy:            0.173552
##########           Internal_energy_repulsive:           15.190786

@<TRIPOS>MOLECULE
ZINC000369046711
 56 58 1 0 0
SMALL
USER_CHARGES


@<TRIPOS>ATOM
      1 C1        -15.8403   -0.0093   48.5618 C.3     1  ZINC000369046711   -0.1800
      2 C2        -14.9008    0.6289   49.5869 C.3     1  ZINC000369046711    0.1400
      3 C3        -14.4507    2.0010   49.0815 C.3     1  ZINC000369046711   -0.1800
      4 C4        -15.6349    0.7919   50.9193 C.3     1  ZINC000369046711   -0.1400
      5 O5        -13.7396   -0.2224   49.7750 O.3     1  ZINC000369046711   -0.3700
      6 C6        -13.1263   -0.1639   50.9722 C.2     1  ZINC000369046711    0.6500
      7 O7        -12.4948    0.8264   51.2836 O.2     1  ZINC000369046711   -0.5700
      8 N8        -13.2127   -1.2039   51.8250 N.am    1  ZINC000369046711   -0.7100
      9 C9        -12.5467   -1.1395   53.1284 C.3     1  ZINC000369046711    0.1800
     10 H10       -12.6445   -0.1300   53.5276 H       1  ZINC000369046711    0.0900
     11 C11       -11.0641   -1.4623   52.9468 C.3     1  ZINC000369046711   -0.1300
     12 C12       -10.9508   -2.8897   52.3987 C.3     1  ZINC000369046711   -0.1200
     13 C13       -11.4973   -3.8537   53.4478 C.3     1  ZINC000369046711   -0.1200
     14 C14       -12.9791   -3.5867   53.7204 C.3     1  ZINC000369046711   -0.1000
     15 H15       -13.6141   -3.9328   52.9049 H       1  ZINC000369046711    0.0900
     16 C16       -13.3116   -4.2877   55.0661 C.3     1  ZINC000369046711    0.0400
     17 N17       -13.0995   -3.2910   56.1338 N.3     1  ZINC000369046711   -0.5200
     18 C18       -12.0973   -3.7599   57.1001 C.3     1  ZINC000369046711    0.1200
     19 C19       -12.3280   -3.0879   58.4291 C.2     1  ZINC000369046711    0.2900
     20 N20       -13.4921   -2.8106   58.9580 N.2     1  ZINC000369046711   -0.5400
     21 C21       -13.3221   -2.2170   60.1387 C.2     1  ZINC000369046711    0.2000
     22 N22       -12.0419   -2.1080   60.3786 N.2     1  ZINC000369046711   -0.3200
     23 N23       -11.3737   -2.6741   59.2807 N.pl3   1  ZINC000369046711   -0.3700
     24 C24        -9.9245   -2.7832   59.0958 C.3     1  ZINC000369046711    0.1000
     25 C25        -9.2348   -2.7858   60.4614 C.3     1  ZINC000369046711    0.0500
     26 F26        -8.9294   -1.4718   60.8322 F       1  ZINC000369046711   -0.2000
     27 C27       -12.6793   -2.0135   55.5101 C.3     1  ZINC000369046711    0.0500
     28 C28       -13.2159   -2.1076   54.0705 C.3     1  ZINC000369046711   -0.1000
     29 H29       -14.2875   -1.9084   54.0737 H       1  ZINC000369046711    0.0900
     30 H30       -15.3174   -0.1254   47.6126 H       1  ZINC000369046711    0.0900
     31 H31       -16.1610   -0.9867   48.9219 H       1  ZINC000369046711    0.0600
     32 H32       -16.7120    0.6298   48.4207 H       1  ZINC000369046711    0.0700
     33 H33       -15.3223    2.6401   48.9403 H       1  ZINC000369046711    0.0700
     34 H34       -13.7813    2.4557   49.8118 H       1  ZINC000369046711    0.0600
     35 H35       -13.9277    1.8849   48.1322 H       1  ZINC000369046711    0.0900
     36 H36       -15.9556   -0.1857   51.2795 H       1  ZINC000369046711    0.0700
     37 H37       -14.9655    1.2465   51.6497 H       1  ZINC000369046711    0.0700
     38 H38       -16.5065    1.4309   50.7782 H       1  ZINC000369046711    0.0800
     39 H39       -13.7157   -1.9949   51.5760 H       1  ZINC000369046711    0.4000
     40 H40       -10.6182   -0.7607   52.2417 H       1  ZINC000369046711    0.0700
     41 H41       -10.5524   -1.3950   53.9070 H       1  ZINC000369046711    0.0800
     42 H42       -11.5325   -2.9777   51.4811 H       1  ZINC000369046711    0.0600
     43 H43        -9.9057   -3.1229   52.1951 H       1  ZINC000369046711    0.0700
     44 H44       -11.3778   -4.8766   53.0907 H       1  ZINC000369046711    0.0700
     45 H45       -10.9354   -3.7308   54.3737 H       1  ZINC000369046711    0.0600
     46 H46       -14.3502   -4.6186   55.0668 H       1  ZINC000369046711    0.0800
     47 H47       -12.6489   -5.1402   55.2155 H       1  ZINC000369046711    0.0800
     48 H48       -12.1846   -4.8398   57.2190 H       1  ZINC000369046711    0.0800
     49 H49       -11.0995   -3.5138   56.7369 H       1  ZINC000369046711    0.1000
     50 H50       -14.1139   -1.8801   60.7915 H       1  ZINC000369046711    0.2200
     51 H51        -9.6941   -3.7102   58.5705 H       1  ZINC000369046711    0.1200
     52 H52        -9.5682   -1.9357   58.5103 H       1  ZINC000369046711    0.1100
     53 H53        -9.8999   -3.2274   61.2035 H       1  ZINC000369046711    0.0900
     54 H54        -8.3163   -3.3697   60.4035 H       1  ZINC000369046711    0.0800
     55 H55       -13.1277   -1.1681   56.0318 H       1  ZINC000369046711    0.0900
     56 H56       -11.5926   -1.9292   55.5072 H       1  ZINC000369046711    0.0600
@<TRIPOS>BOND
     1     1     2    1
     2     1    30    1
     3     1    31    1
     4     1    32    1
     5     2     3    1
     6     2     4    1
     7     2     5    1
     8     3    33    1
     9     3    34    1
    10     3    35    1
    11     4    36    1
    12     4    37    1
    13     4    38    1
    14     5     6    1
    15     6     7    2
    16     6     8   am
    17     8     9    1
    18     8    39    1
    19     9    10    1
    20     9    28    1
    21     9    11    1
    22    11    12    1
    23    11    40    1
    24    11    41    1
    25    12    13    1
    26    12    42    1
    27    12    43    1
    28    13    14    1
    29    13    44    1
    30    13    45    1
    31    14    15    1
    32    14    28    1
    33    14    16    1
    34    16    17    1
    35    16    46    1
    36    16    47    1
    37    17    18    1
    38    17    27    1
    39    18    19    1
    40    18    48    1
    41    18    49    1
    42    19    23    1
    43    19    20    2
    44    20    21    1
    45    21    22    2
    46    21    50    1
    47    22    23    1
    48    23    24    1
    49    24    25    1
    50    24    51    1
    51    24    52    1
    52    25    26    1
    53    25    53    1
    54    25    54    1
    55    27    28    1
    56    27    55    1
    57    27    56    1
    58    28    29    1
@<TRIPOS>SUBSTRUCTURE
     1 ZINC000369046711        1 TEMP              0 ****  ****    0 ROOT


##########                                Name:    ZINC000467104849
##########                DOCK_Rotatable_Bonds:                   6
##########                         Heavy_Atoms:                  29
##########                    Molecular_Weight:             421.896
##########                DOCK_Rotatable_Bonds:                   6
##########                       Formal_Charge:           0.0200002
##########                     HBond_Acceptors:                   7
##########                        HBond_Donors:                   0
##########                         Heavy_Atoms:                  29
##########                          Grid_Score:          -31.440838
##########                     Grid_vdw_energy:          -31.968744
##########                      Grid_es_energy:            0.527907
##########           Internal_energy_repulsive:           69.542137

@<TRIPOS>MOLECULE
ZINC000467104849
 54 56 1 0 0
SMALL
USER_CHARGES


@<TRIPOS>ATOM
      1 C1        -11.5583    1.7418   53.6741 C.3     1  ZINC000467104849    0.0200
      2 O2        -11.3670    0.3534   53.3947 O.3     1  ZINC000467104849   -0.3000
      3 C3        -11.8418   -0.5319   54.3114 C.ar    1  ZINC000467104849    0.1000
      4 C4        -12.4100   -0.0744   55.4889 C.ar    1  ZINC000467104849   -0.1700
      5 C5        -12.8927   -0.9759   56.4197 C.ar    1  ZINC000467104849   -0.1200
      6 C6        -12.8092   -2.3342   56.1786 C.ar    1  ZINC000467104849   -0.0800
      7 C7        -13.3363   -3.3124   57.1966 C.3     1  ZINC000467104849   -0.0400
      8 C8        -14.8491   -3.4629   57.0238 C.3     1  ZINC000467104849   -0.1300
      9 C9        -12.6624   -4.6711   56.9950 C.3     1  ZINC000467104849   -0.1600
     10 C10       -13.0373   -2.8041   58.5834 C.2     1  ZINC000467104849    0.5300
     11 O11       -13.9387   -2.6484   59.3797 O.2     1  ZINC000467104849   -0.5300
     12 N12       -11.7680   -2.5225   58.9387 N.am    1  ZINC000467104849   -0.6100
     13 C13       -10.6579   -2.7034   57.9899 C.3     1  ZINC000467104849    0.0600
     14 C14        -9.8307   -1.4132   57.9619 C.3     1  ZINC000467104849    0.0500
     15 O15        -9.4715   -1.0551   59.2985 O.3     1  ZINC000467104849   -0.3700
     16 C16       -10.5857   -0.7672   60.1468 C.3     1  ZINC000467104849    0.1300
     17 H17       -11.1784    0.0361   59.7093 H       1  ZINC000467104849    0.0800
     18 C18       -10.0882   -0.3436   61.5048 C.ar    1  ZINC000467104849   -0.0900
     19 C19        -9.2844   -1.1931   62.2415 C.ar    1  ZINC000467104849   -0.0500
     20 C20        -8.8271   -0.8063   63.4874 C.ar    1  ZINC000467104849   -0.1400
     21 C21        -9.1739    0.4327   63.9975 C.ar    1  ZINC000467104849    0.1200
     22 F22        -8.7272    0.8118   65.2148 F       1  ZINC000467104849   -0.1200
     23 C23        -9.9797    1.2841   63.2582 C.ar    1  ZINC000467104849   -0.0800
     24 Cl24      -10.4161    2.8387   63.8959 Cl      1  ZINC000467104849   -0.0400
     25 C25       -10.4317    0.8965   62.0101 C.ar    1  ZINC000467104849   -0.0700
     26 C26       -11.4522   -2.0191   60.2849 C.3     1  ZINC000467104849    0.0900
     27 C27       -12.2436   -2.7978   55.0049 C.ar    1  ZINC000467104849   -0.1600
     28 C28       -11.7630   -1.8998   54.0658 C.ar    1  ZINC000467104849    0.1100
     29 O29       -11.2063   -2.3540   52.9111 O.3     1  ZINC000467104849   -0.3000
     30 C30       -11.1406   -3.7706   52.7359 C.3     1  ZINC000467104849    0.0200
     31 H31       -11.1343    2.3368   52.8653 H       1  ZINC000467104849    0.1000
     32 H32       -12.6245    1.9517   53.7593 H       1  ZINC000467104849    0.0600
     33 H33       -11.0621    1.9956   54.6108 H       1  ZINC000467104849    0.0600
     34 H34       -12.4757    0.9866   55.6801 H       1  ZINC000467104849    0.1400
     35 H35       -13.3355   -0.6179   57.3374 H       1  ZINC000467104849    0.1300
     36 H36       -15.0610   -3.9133   56.0540 H       1  ZINC000467104849    0.0700
     37 H37       -15.2435   -4.1009   57.8147 H       1  ZINC000467104849    0.0700
     38 H38       -15.3206   -2.4816   57.0795 H       1  ZINC000467104849    0.0700
     39 H39       -11.5965   -4.5827   57.2052 H       1  ZINC000467104849    0.0700
     40 H40       -13.1068   -5.4011   57.6715 H       1  ZINC000467104849    0.0700
     41 H41       -12.8037   -4.9974   55.9646 H       1  ZINC000467104849    0.0700
     42 H42       -10.0308   -3.5345   58.3128 H       1  ZINC000467104849    0.0800
     43 H43       -11.0545   -2.9069   56.9952 H       1  ZINC000467104849    0.1100
     44 H44        -8.9278   -1.5724   57.3725 H       1  ZINC000467104849    0.1100
     45 H45       -10.4206   -0.6121   57.5164 H       1  ZINC000467104849    0.0600
     46 H46        -9.0136   -2.1599   61.8436 H       1  ZINC000467104849    0.1500
     47 H47        -8.1996   -1.4708   64.0627 H       1  ZINC000467104849    0.1500
     48 H48       -11.0592    1.5597   61.4333 H       1  ZINC000467104849    0.1500
     49 H49       -12.3739   -1.7713   60.8114 H       1  ZINC000467104849    0.1100
     50 H50       -10.9070   -2.7838   60.8382 H       1  ZINC000467104849    0.0800
     51 H51       -12.1796   -3.8596   54.8188 H       1  ZINC000467104849    0.1400
     52 H52       -10.5480   -4.2089   53.5389 H       1  ZINC000467104849    0.0600
     53 H53       -12.1478   -4.1867   52.7590 H       1  ZINC000467104849    0.0600
     54 H54       -10.6760   -3.9969   51.7762 H       1  ZINC000467104849    0.1000
@<TRIPOS>BOND
     1     1     2    1
     2     1    31    1
     3     1    32    1
     4     1    33    1
     5     2     3    1
     6     3    28   ar
     7     3     4   ar
     8     4     5   ar
     9     4    34    1
    10     5     6   ar
    11     5    35    1
    12     6     7    1
    13     6    27   ar
    14     7     8    1
    15     7     9    1
    16     7    10    1
    17     8    36    1
    18     8    37    1
    19     8    38    1
    20     9    39    1
    21     9    40    1
    22     9    41    1
    23    10    11    2
    24    10    12   am
    25    12    26    1
    26    12    13    1
    27    13    14    1
    28    13    42    1
    29    13    43    1
    30    14    15    1
    31    14    44    1
    32    14    45    1
    33    15    16    1
    34    16    17    1
    35    16    18    1
    36    16    26    1
    37    18    25   ar
    38    18    19   ar
    39    19    20   ar
    40    19    46    1
    41    20    21   ar
    42    20    47    1
    43    21    22    1
    44    21    23   ar
    45    23    24    1
    46    23    25   ar
    47    25    48    1
    48    26    49    1
    49    26    50    1
    50    27    28   ar
    51    27    51    1
    52    28    29    1
    53    29    30    1
    54    30    52    1
    55    30    53    1
    56    30    54    1
@<TRIPOS>SUBSTRUCTURE
     1 ZINC000467104849        1 TEMP              0 ****  ****    0 ROOT


##########                                Name:    ZINC001371344729
##########                DOCK_Rotatable_Bonds:                   9
##########                         Heavy_Atoms:                  24
##########                    Molecular_Weight:             332.399
##########                DOCK_Rotatable_Bonds:                   9
##########                       Formal_Charge:          0.00999983
##########                     HBond_Acceptors:                   6
##########                        HBond_Donors:                   1
##########                         Heavy_Atoms:                  24
##########                          Grid_Score:          -31.436434
##########                     Grid_vdw_energy:          -30.926598
##########                      Grid_es_energy:           -0.509836
##########           Internal_energy_repulsive:           24.909075

@<TRIPOS>MOLECULE
ZINC001371344729
 48 49 1 0 0
SMALL
USER_CHARGES


@<TRIPOS>ATOM
      1 C1        -13.2588   -1.8506   51.0965 C.3     1  ZINC001371344729   -0.1800
      2 C2        -13.5112   -2.0517   52.5921 C.3     1  ZINC001371344729    0.1000
      3 N3        -12.4227   -1.4392   53.3577 N.am    1  ZINC001371344729   -0.6100
      4 C4        -12.3338   -0.0974   53.4475 C.2     1  ZINC001371344729    0.5100
      5 O5        -13.1541    0.6032   52.8931 O.2     1  ZINC001371344729   -0.5200
      6 C6        -11.2151    0.5326   54.2367 C.3     1  ZINC001371344729   -0.0600
      7 C7         -9.9721    0.5918   53.3867 C.2     1  ZINC001371344729   -0.0100
      8 C8         -9.7169    1.5005   52.4283 C.2     1  ZINC001371344729   -0.1600
      9 C9        -10.6113    2.6387   52.0089 C.3     1  ZINC001371344729   -0.0800
     10 C10        -8.4514    1.1795   51.8859 C.2     1  ZINC001371344729   -0.2100
     11 C11        -8.0047    0.0994   52.5517 C.2     1  ZINC001371344729   -0.0300
     12 O12        -8.9315   -0.2544   53.4570 O.3     1  ZINC001371344729   -0.1700
     13 C13       -11.4308   -2.2853   54.0260 C.3     1  ZINC001371344729    0.1200
     14 H14       -10.6008   -1.6688   54.3711 H       1  ZINC001371344729    0.1100
     15 C15       -10.9112   -3.3359   53.0424 C.3     1  ZINC001371344729   -0.1600
     16 C16       -12.0794   -2.9837   55.2228 C.3     1  ZINC001371344729    0.1100
     17 N17       -11.3002   -2.7055   56.4318 N.am    1  ZINC001371344729   -0.7200
     18 C18       -11.1505   -3.6600   57.3714 C.2     1  ZINC001371344729    0.5900
     19 O19       -11.6612   -4.7526   57.2151 O.2     1  ZINC001371344729   -0.5300
     20 C20       -10.3680   -3.3796   58.5884 C.2     1  ZINC001371344729   -0.2300
     21 C21        -9.4957   -4.2175   59.2193 C.2     1  ZINC001371344729    0.0200
     22 O22        -8.9945   -3.5817   60.2828 O.3     1  ZINC001371344729   -0.1700
     23 C23        -9.5097   -2.3469   60.3893 C.2     1  ZINC001371344729   -0.0100
     24 C24        -9.1759   -1.3512   61.4701 C.3     1  ZINC001371344729   -0.0800
     25 C25       -10.3694   -2.1406   59.3800 C.2     1  ZINC001371344729   -0.1600
     26 H26       -12.3133   -2.3182   50.8216 H       1  ZINC001371344729    0.0700
     27 H27       -14.0687   -2.3063   50.5268 H       1  ZINC001371344729    0.0700
     28 H28       -13.2144   -0.7842   50.8756 H       1  ZINC001371344729    0.0600
     29 H29       -13.5555   -3.1182   52.8129 H       1  ZINC001371344729    0.0900
     30 H30       -14.4567   -1.5841   52.8670 H       1  ZINC001371344729    0.0800
     31 H31       -11.0180   -0.0639   55.1274 H       1  ZINC001371344729    0.1100
     32 H32       -11.5020    1.5420   54.5315 H       1  ZINC001371344729    0.1200
     33 H33       -10.3790    3.5217   52.6042 H       1  ZINC001371344729    0.0700
     34 H34       -10.4486    2.8587   50.9538 H       1  ZINC001371344729    0.0700
     35 H35       -11.6531    2.3588   52.1654 H       1  ZINC001371344729    0.0600
     36 H36        -7.9401    1.7027   51.0914 H       1  ZINC001371344729    0.1500
     37 H37        -7.0629   -0.4017   52.3830 H       1  ZINC001371344729    0.2000
     38 H38       -10.4491   -2.8383   52.1898 H       1  ZINC001371344729    0.0700
     39 H39       -10.1732   -3.9655   53.5396 H       1  ZINC001371344729    0.0700
     40 H40       -11.7413   -3.9524   52.6973 H       1  ZINC001371344729    0.0700
     41 H41       -13.0962   -2.6128   55.3526 H       1  ZINC001371344729    0.0800
     42 H42       -12.1048   -4.0589   55.0461 H       1  ZINC001371344729    0.0800
     43 H43       -10.8919   -1.8344   56.5559 H       1  ZINC001371344729    0.4000
     44 H44        -9.2502   -5.2229   58.9106 H       1  ZINC001371344729    0.2100
     45 H45        -9.8615   -1.4805   62.3077 H       1  ZINC001371344729    0.0800
     46 H46        -8.1529   -1.5128   61.8097 H       1  ZINC001371344729    0.0800
     47 H47        -9.2720   -0.3400   61.0748 H       1  ZINC001371344729    0.0900
     48 H48       -10.9446   -1.2469   59.1881 H       1  ZINC001371344729    0.1600
@<TRIPOS>BOND
     1     1     2    1
     2     1    26    1
     3     1    27    1
     4     1    28    1
     5     2     3    1
     6     2    29    1
     7     2    30    1
     8     3     4   am
     9     3    13    1
    10     4     5    2
    11     4     6    1
    12     6     7    1
    13     6    31    1
    14     6    32    1
    15     7    12    1
    16     7     8    2
    17     8     9    1
    18     8    10    1
    19     9    33    1
    20     9    34    1
    21     9    35    1
    22    10    11    2
    23    10    36    1
    24    11    12    1
    25    11    37    1
    26    13    14    1
    27    13    15    1
    28    13    16    1
    29    15    38    1
    30    15    39    1
    31    15    40    1
    32    16    17    1
    33    16    41    1
    34    16    42    1
    35    17    18   am
    36    17    43    1
    37    18    19    2
    38    18    20    1
    39    20    25    1
    40    20    21    2
    41    21    22    1
    42    21    44    1
    43    22    23    1
    44    23    24    1
    45    23    25    2
    46    24    45    1
    47    24    46    1
    48    24    47    1
    49    25    48    1
@<TRIPOS>SUBSTRUCTURE
     1 ZINC001371344729        1 TEMP              0 ****  ****    0 ROOT


##########                                Name:    ZINC000672622940
##########                DOCK_Rotatable_Bonds:                   7
##########                         Heavy_Atoms:                  30
##########                    Molecular_Weight:             416.523
##########                DOCK_Rotatable_Bonds:                   7
##########                       Formal_Charge:          -0.0100002
##########                     HBond_Acceptors:                   9
##########                        HBond_Donors:                   1
##########                         Heavy_Atoms:                  30
##########                          Grid_Score:          -31.435175
##########                     Grid_vdw_energy:          -30.675705
##########                      Grid_es_energy:           -0.759470
##########           Internal_energy_repulsive:           19.727077

@<TRIPOS>MOLECULE
ZINC000672622940
 62 65 1 0 0
SMALL
USER_CHARGES


@<TRIPOS>ATOM
      1 C1        -14.2544   -0.2678   47.4733 C.3     1  ZINC000672622940    0.0800
      2 N2        -15.4716    0.5305   47.3082 N.am    1  ZINC000672622940   -0.6200
      3 C3        -16.2729    0.4008   46.0886 C.3     1  ZINC000672622940    0.0700
      4 C4        -15.8541    1.3844   48.2783 C.2     1  ZINC000672622940    0.5200
      5 O5        -16.8626    2.0443   48.1423 O.2     1  ZINC000672622940   -0.5300
      6 C6        -15.0288    1.5191   49.5319 C.3     1  ZINC000672622940   -0.1000
      7 H7        -13.9753    1.3779   49.2904 H       1  ZINC000672622940    0.1000
      8 C8        -15.2326    2.9128   50.1295 C.3     1  ZINC000672622940   -0.1300
      9 C9        -14.3947    3.0496   51.4023 C.3     1  ZINC000672622940   -0.1100
     10 C10       -14.8317    1.9909   52.4167 C.3     1  ZINC000672622940   -0.1300
     11 C11       -14.6278    0.5972   51.8192 C.3     1  ZINC000672622940    0.1400
     12 H12       -13.5743    0.4559   51.5776 H       1  ZINC000672622940    0.1000
     13 N13       -15.0462   -0.4166   52.7906 N.am    1  ZINC000672622940   -0.6900
     14 C14       -14.4987   -1.6478   52.7579 C.2     1  ZINC000672622940    0.5100
     15 O15       -13.6581   -1.9160   51.9248 O.2     1  ZINC000672622940   -0.5100
     16 C16       -14.9268   -2.6824   53.7476 C.2     1  ZINC000672622940    0.5100
     17 O17       -15.6774   -3.5733   53.4079 O.2     1  ZINC000672622940   -0.5200
     18 N18       -14.4792   -2.6261   55.0177 N.am    1  ZINC000672622940   -0.5800
     19 C19       -14.8863   -3.6394   56.0005 C.3     1  ZINC000672622940    0.0700
     20 C20       -13.6297   -4.2420   56.6368 C.3     1  ZINC000672622940   -0.1200
     21 C21       -12.7659   -3.1183   57.2137 C.3     1  ZINC000672622940    0.0000
     22 C22       -11.5454   -3.7099   57.8705 C.2     1  ZINC000672622940    0.2000
     23 N23       -11.0673   -4.9088   57.6777 N.2     1  ZINC000672622940   -0.2800
     24 N24       -10.0169   -5.0771   58.3998 N.2     1  ZINC000672622940   -0.2800
     25 C25        -9.7772   -3.9911   59.0859 C.2     1  ZINC000672622940    0.1500
     26 C26        -8.8188   -3.3882   60.0900 C.3     1  ZINC000672622940   -0.0400
     27 C27        -9.0952   -1.8692   60.0159 C.3     1  ZINC000672622940   -0.1300
     28 C28       -10.5521   -1.8375   59.5046 C.3     1  ZINC000672622940    0.1000
     29 N29       -10.7363   -3.0935   58.7673 N.pl3   1  ZINC000672622940   -0.4900
     30 C30       -12.3330   -2.1761   56.0880 C.3     1  ZINC000672622940   -0.1200
     31 C31       -13.5700   -1.5536   55.4440 C.3     1  ZINC000672622940    0.1100
     32 C32       -15.4657    0.4604   50.5464 C.3     1  ZINC000672622940   -0.1100
     33 H33       -13.4023    0.2817   47.0731 H       1  ZINC000672622940    0.0600
     34 H34       -14.0924   -0.4686   48.5322 H       1  ZINC000672622940    0.0800
     35 H35       -14.3628   -1.2107   46.9372 H       1  ZINC000672622940    0.0700
     36 H36       -17.0218   -0.3790   46.2272 H       1  ZINC000672622940    0.0600
     37 H37       -16.7693    1.3480   45.8776 H       1  ZINC000672622940    0.0800
     38 H38       -15.6238    0.1368   45.2537 H       1  ZINC000672622940    0.0700
     39 H39       -14.9213    3.6671   49.4068 H       1  ZINC000672622940    0.0800
     40 H40       -16.2861    3.0540   50.3711 H       1  ZINC000672622940    0.0700
     41 H41       -13.3413    2.9084   51.1607 H       1  ZINC000672622940    0.0700
     42 H42       -14.5400    4.0424   51.8280 H       1  ZINC000672622940    0.0700
     43 H43       -14.2348    2.0882   53.3235 H       1  ZINC000672622940    0.0700
     44 H44       -15.8852    2.1320   52.6583 H       1  ZINC000672622940    0.0700
     45 H45       -15.7172   -0.2018   53.4572 H       1  ZINC000672622940    0.4100
     46 H46       -15.4995   -3.1742   56.7723 H       1  ZINC000672622940    0.0700
     47 H47       -15.4556   -4.4240   55.5020 H       1  ZINC000672622940    0.1400
     48 H48       -13.9183   -4.9255   57.4352 H       1  ZINC000672622940    0.0800
     49 H49       -13.0632   -4.7844   55.8799 H       1  ZINC000672622940    0.0800
     50 H50       -13.3414   -2.5605   57.9525 H       1  ZINC000672622940    0.0900
     51 H51        -9.0282   -3.7654   61.0911 H       1  ZINC000672622940    0.1000
     52 H52        -7.7876   -3.6023   59.8089 H       1  ZINC000672622940    0.1000
     53 H53        -9.0178   -1.4102   61.0015 H       1  ZINC000672622940    0.1100
     54 H54        -8.4229   -1.3846   59.3078 H       1  ZINC000672622940    0.0900
     55 H55       -11.2451   -1.7835   60.3443 H       1  ZINC000672622940    0.1000
     56 H56       -10.6992   -0.9876   58.8382 H       1  ZINC000672622940    0.1000
     57 H57       -11.6985   -1.3892   56.4959 H       1  ZINC000672622940    0.0800
     58 H58       -11.7786   -2.7381   55.3363 H       1  ZINC000672622940    0.0800
     59 H59       -13.2723   -0.9599   54.5796 H       1  ZINC000672622940    0.1000
     60 H60       -14.0786   -0.9179   56.1688 H       1  ZINC000672622940    0.0800
     61 H61       -16.5192    0.6016   50.7880 H       1  ZINC000672622940    0.0800
     62 H62       -15.3205   -0.5325   50.1208 H       1  ZINC000672622940    0.0800
@<TRIPOS>BOND
     1     1     2    1
     2     1    33    1
     3     1    34    1
     4     1    35    1
     5     2     3    1
     6     2     4   am
     7     3    36    1
     8     3    37    1
     9     3    38    1
    10     4     5    2
    11     4     6    1
    12     6     7    1
    13     6    32    1
    14     6     8    1
    15     8     9    1
    16     8    39    1
    17     8    40    1
    18     9    10    1
    19     9    41    1
    20     9    42    1
    21    10    11    1
    22    10    43    1
    23    10    44    1
    24    11    12    1
    25    11    13    1
    26    11    32    1
    27    13    14   am
    28    13    45    1
    29    14    15    2
    30    14    16    1
    31    16    17    2
    32    16    18   am
    33    18    31    1
    34    18    19    1
    35    19    20    1
    36    19    46    1
    37    19    47    1
    38    20    21    1
    39    20    48    1
    40    20    49    1
    41    21    22    1
    42    21    30    1
    43    21    50    1
    44    22    29    1
    45    22    23    2
    46    23    24    1
    47    24    25    2
    48    25    29    1
    49    25    26    1
    50    26    27    1
    51    26    51    1
    52    26    52    1
    53    27    28    1
    54    27    53    1
    55    27    54    1
    56    28    29    1
    57    28    55    1
    58    28    56    1
    59    30    31    1
    60    30    57    1
    61    30    58    1
    62    31    59    1
    63    31    60    1
    64    32    61    1
    65    32    62    1
@<TRIPOS>SUBSTRUCTURE
     1 ZINC000672622940        1 TEMP              0 ****  ****    0 ROOT


##########                                Name:    ZINC000179743483
##########                DOCK_Rotatable_Bonds:                   5
##########                         Heavy_Atoms:                  23
##########                    Molecular_Weight:             393.347
##########                DOCK_Rotatable_Bonds:                   5
##########                       Formal_Charge:          -0.0199999
##########                     HBond_Acceptors:                   4
##########                        HBond_Donors:                   0
##########                         Heavy_Atoms:                  23
##########                          Grid_Score:          -31.424139
##########                     Grid_vdw_energy:          -30.842886
##########                      Grid_es_energy:           -0.581253
##########           Internal_energy_repulsive:           25.908918

@<TRIPOS>MOLECULE
ZINC000179743483
 44 46 1 0 0
SMALL
USER_CHARGES


@<TRIPOS>ATOM
      1 C1        -11.3701   -2.2594   51.7388 C.3     1  ZINC000179743483   -0.1400
      2 C2        -11.5155   -2.0888   53.2523 C.3     1  ZINC000179743483   -0.1000
      3 H3        -10.6052   -2.4297   53.7455 H       1  ZINC000179743483    0.1000
      4 C4        -11.7502   -0.6125   53.5789 C.3     1  ZINC000179743483   -0.0700
      5 C5        -10.6027    0.2078   53.0484 C.ar    1  ZINC000179743483   -0.0600
      6 C6         -9.3112   -0.2793   53.1258 C.ar    1  ZINC000179743483   -0.1100
      7 C7         -8.2585    0.4726   52.6390 C.ar    1  ZINC000179743483   -0.0900
      8 C8         -8.4974    1.7126   52.0743 C.ar    1  ZINC000179743483   -0.0900
      9 Br9        -7.0577    2.7414   51.4075 Br      1  ZINC000179743483   -0.0500
     10 C10        -9.7898    2.1994   51.9970 C.ar    1  ZINC000179743483   -0.0900
     11 C11       -10.8424    1.4447   52.4793 C.ar    1  ZINC000179743483   -0.1100
     12 C12       -12.6860   -2.9033   53.7396 C.2     1  ZINC000179743483    0.5200
     13 O13       -13.5086   -3.3157   52.9496 O.2     1  ZINC000179743483   -0.5300
     14 N14       -12.8188   -3.1734   55.0533 N.am    1  ZINC000179743483   -0.6100
     15 C15       -13.9547   -3.9662   55.5433 C.3     1  ZINC000179743483    0.1000
     16 C16       -13.4177   -5.1356   56.3745 C.3     1  ZINC000179743483   -0.1400
     17 C17       -12.5056   -4.5953   57.4783 C.3     1  ZINC000179743483   -0.1100
     18 C18       -11.3175   -3.8647   56.8485 C.3     1  ZINC000179743483   -0.0200
     19 H19       -10.7706   -4.5502   56.2010 H       1  ZINC000179743483    0.0900
     20 C20       -10.4027   -3.3618   57.9353 C.2     1  ZINC000179743483    0.0500
     21 N21        -9.7973   -4.1090   58.7954 N.2     1  ZINC000179743483   -0.4700
     22 C22        -9.0306   -3.5055   59.6814 C.2     1  ZINC000179743483    0.0400
     23 C23        -8.9871   -2.1752   59.5618 C.2     1  ZINC000179743483   -0.2600
     24 S24       -10.0113   -1.7190   58.2026 S.3     1  ZINC000179743483    0.1300
     25 C25       -11.8274   -2.6860   56.0219 C.3     1  ZINC000179743483    0.1200
     26 H26       -12.3074   -1.9913   51.2513 H       1  ZINC000179743483    0.0700
     27 H27       -10.5729   -1.6113   51.3750 H       1  ZINC000179743483    0.0700
     28 H28       -11.1266   -3.2974   51.5119 H       1  ZINC000179743483    0.0600
     29 H29       -12.6790   -0.2809   53.1148 H       1  ZINC000179743483    0.0900
     30 H30       -11.8184   -0.4859   54.6593 H       1  ZINC000179743483    0.0800
     31 H31        -9.1248   -1.2471   53.5671 H       1  ZINC000179743483    0.1300
     32 H32        -7.2495    0.0922   52.6999 H       1  ZINC000179743483    0.1300
     33 H33        -9.9768    3.1675   51.5562 H       1  ZINC000179743483    0.1300
     34 H34       -11.8516    1.8247   52.4190 H       1  ZINC000179743483    0.1300
     35 H35       -14.5960   -3.3406   56.1642 H       1  ZINC000179743483    0.0700
     36 H36       -14.5242   -4.3505   54.6971 H       1  ZINC000179743483    0.0900
     37 H37       -14.2512   -5.6759   56.8234 H       1  ZINC000179743483    0.0800
     38 H38       -12.8510   -5.8090   55.7315 H       1  ZINC000179743483    0.0700
     39 H39       -13.0663   -3.9028   58.1061 H       1  ZINC000179743483    0.0800
     40 H40       -12.1417   -5.4234   58.0865 H       1  ZINC000179743483    0.0700
     41 H41        -8.4828   -4.0421   60.4419 H       1  ZINC000179743483    0.1800
     42 H42        -8.4211   -1.4994   60.1859 H       1  ZINC000179743483    0.1800
     43 H43       -10.9943   -2.2234   55.4926 H       1  ZINC000179743483    0.0900
     44 H44       -12.2967   -1.9543   56.6795 H       1  ZINC000179743483    0.0800
@<TRIPOS>BOND
     1     1     2    1
     2     1    26    1
     3     1    27    1
     4     1    28    1
     5     2     3    1
     6     2     4    1
     7     2    12    1
     8     4     5    1
     9     4    29    1
    10     4    30    1
    11     5    11   ar
    12     5     6   ar
    13     6     7   ar
    14     6    31    1
    15     7     8   ar
    16     7    32    1
    17     8     9    1
    18     8    10   ar
    19    10    11   ar
    20    10    33    1
    21    11    34    1
    22    12    13    2
    23    12    14   am
    24    14    25    1
    25    14    15    1
    26    15    16    1
    27    15    35    1
    28    15    36    1
    29    16    17    1
    30    16    37    1
    31    16    38    1
    32    17    18    1
    33    17    39    1
    34    17    40    1
    35    18    19    1
    36    18    20    1
    37    18    25    1
    38    20    24    1
    39    20    21    2
    40    21    22    1
    41    22    23    2
    42    22    41    1
    43    23    24    1
    44    23    42    1
    45    25    43    1
    46    25    44    1
@<TRIPOS>SUBSTRUCTURE
     1 ZINC000179743483        1 TEMP              0 ****  ****    0 ROOT


##########                                Name:    ZINC000460163972
##########                DOCK_Rotatable_Bonds:                   7
##########                         Heavy_Atoms:                  28
##########                    Molecular_Weight:             408.469
##########                DOCK_Rotatable_Bonds:                   7
##########                       Formal_Charge:          -0.0100001
##########                     HBond_Acceptors:                   8
##########                        HBond_Donors:                   2
##########                         Heavy_Atoms:                  28
##########                          Grid_Score:          -31.423597
##########                     Grid_vdw_energy:          -29.823637
##########                      Grid_es_energy:           -1.599961
##########           Internal_energy_repulsive:           48.359623

@<TRIPOS>MOLECULE
ZINC000460163972
 50 52 1 0 0
SMALL
USER_CHARGES


@<TRIPOS>ATOM
      1 C1         -8.8139   -3.1336   59.5846 C.3     1  ZINC000460163972   -0.1400
      2 C2        -10.0385   -3.1032   58.7069 C.ar    1  ZINC000460163972    0.0100
      3 C3        -10.6605   -4.2852   58.3495 C.ar    1  ZINC000460163972   -0.1300
      4 C4        -11.7833   -4.2608   57.5451 C.ar    1  ZINC000460163972   -0.0600
      5 C5        -12.2873   -3.0476   57.0958 C.ar    1  ZINC000460163972    0.1100
      6 N6        -13.4246   -3.0193   56.2813 N.am    1  ZINC000460163972   -0.6700
      7 C7        -13.3110   -3.2442   54.9572 C.2     1  ZINC000460163972    0.5200
      8 O8        -12.2229   -3.4710   54.4718 O.2     1  ZINC000460163972   -0.5100
      9 C9        -14.5359   -3.2138   54.0799 C.3     1  ZINC000460163972   -0.0700
     10 H10       -14.8059   -4.2313   53.7974 H       1  ZINC000460163972    0.1200
     11 C11       -15.6953   -2.5722   54.8448 C.3     1  ZINC000460163972   -0.1500
     12 C12       -14.2456   -2.4085   52.8396 C.ar    1  ZINC000460163972   -0.0600
     13 C13       -13.3417   -1.3640   52.8906 C.ar    1  ZINC000460163972   -0.0700
     14 C14       -13.0738   -0.6236   51.7542 C.ar    1  ZINC000460163972   -0.1200
     15 C15       -13.7104   -0.9283   50.5639 C.ar    1  ZINC000460163972    0.0700
     16 F16       -13.4488   -0.2056   49.4528 F       1  ZINC000460163972   -0.1300
     17 C17       -14.6170   -1.9766   50.5127 C.ar    1  ZINC000460163972    0.0700
     18 F18       -15.2398   -2.2759   49.3518 F       1  ZINC000460163972   -0.1300
     19 C19       -14.8794   -2.7187   51.6507 C.ar    1  ZINC000460163972   -0.1200
     20 C20       -11.6604   -1.8619   57.4570 C.ar    1  ZINC000460163972    0.0000
     21 C21       -12.2044   -0.5429   56.9720 C.3     1  ZINC000460163972   -0.1500
     22 C22       -10.5412   -1.8928   58.2652 C.ar    1  ZINC000460163972   -0.6700
     23 S23        -9.7455   -0.3893   58.7246 S.o2    1  ZINC000460163972    2.7000
     24 O24        -8.5588   -0.3095   57.9471 O.2     1  ZINC000460163972   -0.9500
     25 O25       -10.7502    0.6156   58.7148 O.2     1  ZINC000460163972   -0.9500
     26 N26        -9.2622   -0.5521   60.3002 N.am    1  ZINC000460163972   -1.0900
     27 C27       -10.2542   -0.8034   61.3484 C.3     1  ZINC000460163972    0.0800
     28 C28        -9.9865   -0.2074   62.7319 C.3     1  ZINC000460163972   -0.1800
     29 C29       -11.0786    0.3877   61.8410 C.3     1  ZINC000460163972   -0.1900
     30 H30        -9.1075   -2.9818   60.6233 H       1  ZINC000460163972    0.1000
     31 H31        -8.3188   -4.0996   59.4843 H       1  ZINC000460163972    0.0800
     32 H32        -8.1296   -2.3414   59.2810 H       1  ZINC000460163972    0.0700
     33 H33       -10.2680   -5.2285   58.6993 H       1  ZINC000460163972    0.1400
     34 H34       -12.2683   -5.1845   57.2657 H       1  ZINC000460163972    0.1600
     35 H35       -14.2949   -2.8380   56.6694 H       1  ZINC000460163972    0.4100
     36 H36       -16.5812   -2.5503   54.2103 H       1  ZINC000460163972    0.0800
     37 H37       -15.9053   -3.1547   55.7419 H       1  ZINC000460163972    0.0700
     38 H38       -15.4254   -1.5546   55.1273 H       1  ZINC000460163972    0.0700
     39 H39       -12.8446   -1.1257   53.8193 H       1  ZINC000460163972    0.1400
     40 H40       -12.3679    0.1926   51.7954 H       1  ZINC000460163972    0.1500
     41 H41       -15.5850   -3.5355   51.6120 H       1  ZINC000460163972    0.1500
     42 H42       -12.8393   -0.1062   57.7429 H       1  ZINC000460163972    0.1000
     43 H43       -11.3776    0.1338   56.7559 H       1  ZINC000460163972    0.1000
     44 H44       -12.7897   -0.7021   56.0663 H       1  ZINC000460163972    0.0700
     45 H45        -8.3222   -0.4809   60.5289 H       1  ZINC000460163972    0.4200
     46 H46       -10.7483   -1.7740   61.3052 H       1  ZINC000460163972    0.1300
     47 H47       -10.3042   -0.7861   63.5993 H       1  ZINC000460163972    0.1100
     48 H48        -9.0722    0.3716   62.8621 H       1  ZINC000460163972    0.1000
     49 H49       -10.8829    1.3582   61.3850 H       1  ZINC000460163972    0.1000
     50 H50       -12.1151    0.2005   62.1221 H       1  ZINC000460163972    0.1000
@<TRIPOS>BOND
     1     1     2    1
     2     1    30    1
     3     1    31    1
     4     1    32    1
     5     2    22   ar
     6     2     3   ar
     7     3     4   ar
     8     3    33    1
     9     4     5   ar
    10     4    34    1
    11     5     6    1
    12     5    20   ar
    13     6     7   am
    14     6    35    1
    15     7     8    2
    16     7     9    1
    17     9    10    1
    18     9    11    1
    19     9    12    1
    20    11    36    1
    21    11    37    1
    22    11    38    1
    23    12    19   ar
    24    12    13   ar
    25    13    14   ar
    26    13    39    1
    27    14    15   ar
    28    14    40    1
    29    15    16    1
    30    15    17   ar
    31    17    18    1
    32    17    19   ar
    33    19    41    1
    34    20    21    1
    35    20    22   ar
    36    21    42    1
    37    21    43    1
    38    21    44    1
    39    22    23    1
    40    23    24    2
    41    23    25    2
    42    23    26   am
    43    26    27    1
    44    26    45    1
    45    27    29    1
    46    27    28    1
    47    27    46    1
    48    28    29    1
    49    28    47    1
    50    28    48    1
    51    29    49    1
    52    29    50    1
@<TRIPOS>SUBSTRUCTURE
     1 ZINC000460163972        1 TEMP              0 ****  ****    0 ROOT


##########                                Name:    ZINC000680410869
##########                DOCK_Rotatable_Bonds:                   6
##########                         Heavy_Atoms:                  24
##########                    Molecular_Weight:             335.354
##########                DOCK_Rotatable_Bonds:                   6
##########                       Formal_Charge:        -1.04308e-07
##########                     HBond_Acceptors:                   7
##########                        HBond_Donors:                   0
##########                         Heavy_Atoms:                  24
##########                          Grid_Score:          -31.421038
##########                     Grid_vdw_energy:          -30.439093
##########                      Grid_es_energy:           -0.981946
##########           Internal_energy_repulsive:           10.814349

@<TRIPOS>MOLECULE
ZINC000680410869
 43 45 1 0 0
SMALL
USER_CHARGES


@<TRIPOS>ATOM
      1 O1        -10.2115   -5.3412   58.5110 O.2     1  ZINC000680410869   -0.5200
      2 C2        -10.3514   -4.1882   58.1518 C.2     1  ZINC000680410869    0.6100
      3 C3        -11.2728   -3.8668   57.0430 C.2     1  ZINC000680410869    0.0100
      4 N4        -10.9888   -3.8876   55.7560 N.2     1  ZINC000680410869   -0.2500
      5 N5        -12.0232   -3.5545   55.0708 N.pl3   1  ZINC000680410869   -0.3500
      6 C6        -12.0687   -3.4721   53.6088 C.3     1  ZINC000680410869    0.5000
      7 F7        -10.9016   -2.8598   53.1396 F       1  ZINC000680410869   -0.1600
      8 F8        -12.1679   -4.7601   53.0720 F       1  ZINC000680410869   -0.1700
      9 C9        -13.0625   -3.2918   55.8919 C.2     1  ZINC000680410869    0.0100
     10 C10       -12.6300   -3.4837   57.1601 C.2     1  ZINC000680410869   -0.1700
     11 N11        -9.6700   -3.2027   58.7689 N.am    1  ZINC000680410869   -0.6000
     12 C12        -8.7465   -3.4984   59.8758 C.3     1  ZINC000680410869    0.0800
     13 C13        -9.0869   -2.5732   61.0496 C.3     1  ZINC000680410869    0.0500
     14 O14        -9.1141   -1.2198   60.5899 O.3     1  ZINC000680410869   -0.3700
     15 C15       -10.1148   -0.9568   59.6034 C.3     1  ZINC000680410869    0.0800
     16 H16       -11.0956   -1.2183   60.0010 H       1  ZINC000680410869    0.0600
     17 C17       -10.0920    0.5281   59.2354 C.3     1  ZINC000680410869   -0.1000
     18 C18       -10.3433    1.3682   60.4892 C.3     1  ZINC000680410869   -0.0800
     19 C19       -11.7065    1.0457   61.0451 C.ar    1  ZINC000680410869   -0.0800
     20 C20       -12.8256    1.6846   60.5450 C.ar    1  ZINC000680410869   -0.1200
     21 C21       -14.0759    1.3888   61.0549 C.ar    1  ZINC000680410869   -0.1200
     22 C22       -14.2072    0.4536   62.0644 C.ar    1  ZINC000680410869   -0.1300
     23 C23       -13.0881   -0.1860   62.5638 C.ar    1  ZINC000680410869   -0.1200
     24 C24       -11.8382    0.1067   62.0510 C.ar    1  ZINC000680410869   -0.1200
     25 C25        -9.8229   -1.7999   58.3517 C.3     1  ZINC000680410869    0.0600
     26 H26       -12.9348   -2.8841   53.3049 H       1  ZINC000680410869    0.1700
     27 H27       -14.0551   -2.9892   55.5924 H       1  ZINC000680410869    0.1900
     28 H28       -13.1992   -3.3640   58.0700 H       1  ZINC000680410869    0.1700
     29 H29        -8.8618   -4.5380   60.1823 H       1  ZINC000680410869    0.1000
     30 H30        -7.7200   -3.3215   59.5546 H       1  ZINC000680410869    0.0800
     31 H31       -10.0638   -2.8405   61.4525 H       1  ZINC000680410869    0.0600
     32 H32        -8.3304   -2.6783   61.8274 H       1  ZINC000680410869    0.1100
     33 H33        -9.1189    0.7835   58.8160 H       1  ZINC000680410869    0.0800
     34 H34       -10.8697    0.7321   58.4995 H       1  ZINC000680410869    0.0800
     35 H35        -9.5832    1.1417   61.2368 H       1  ZINC000680410869    0.0700
     36 H36       -10.2966    2.4266   60.2327 H       1  ZINC000680410869    0.0800
     37 H37       -12.7231    2.4152   59.7562 H       1  ZINC000680410869    0.1200
     38 H38       -14.9503    1.8885   60.6647 H       1  ZINC000680410869    0.1200
     39 H39       -15.1840    0.2230   62.4633 H       1  ZINC000680410869    0.1200
     40 H40       -13.1905   -0.9164   63.3528 H       1  ZINC000680410869    0.1200
     41 H41       -10.9639   -0.3929   62.4411 H       1  ZINC000680410869    0.1200
     42 H42        -8.9052   -1.4496   57.8791 H       1  ZINC000680410869    0.0800
     43 H43       -10.6530   -1.7154   57.6503 H       1  ZINC000680410869    0.1300
@<TRIPOS>BOND
     1     1     2    2
     2     2     3    1
     3     2    11   am
     4     3    10    1
     5     3     4    2
     6     4     5    1
     7     5     6    1
     8     5     9    1
     9     6     7    1
    10     6     8    1
    11     6    26    1
    12     9    10    2
    13     9    27    1
    14    10    28    1
    15    11    25    1
    16    11    12    1
    17    12    13    1
    18    12    29    1
    19    12    30    1
    20    13    14    1
    21    13    31    1
    22    13    32    1
    23    14    15    1
    24    15    16    1
    25    15    17    1
    26    15    25    1
    27    17    18    1
    28    17    33    1
    29    17    34    1
    30    18    19    1
    31    18    35    1
    32    18    36    1
    33    19    24   ar
    34    19    20   ar
    35    20    21   ar
    36    20    37    1
    37    21    22   ar
    38    21    38    1
    39    22    23   ar
    40    22    39    1
    41    23    24   ar
    42    23    40    1
    43    24    41    1
    44    25    42    1
    45    25    43    1
@<TRIPOS>SUBSTRUCTURE
     1 ZINC000680410869        1 TEMP              0 ****  ****    0 ROOT


##########                                Name:    ZINC001122903793
##########                DOCK_Rotatable_Bonds:                   4
##########                         Heavy_Atoms:                  25
##########                    Molecular_Weight:             399.968
##########                DOCK_Rotatable_Bonds:                   4
##########                       Formal_Charge:           0.0100003
##########                     HBond_Acceptors:                   9
##########                        HBond_Donors:                   0
##########                         Heavy_Atoms:                  25
##########                          Grid_Score:          -31.409811
##########                     Grid_vdw_energy:          -30.454920
##########                      Grid_es_energy:           -0.954891
##########           Internal_energy_repulsive:           13.736293

@<TRIPOS>MOLECULE
ZINC001122903793
 47 50 1 0 0
SMALL
USER_CHARGES


@<TRIPOS>ATOM
      1 C1        -15.7880   -1.4121   54.7324 C.3     1  ZINC001122903793   -0.1400
      2 C2        -14.6990   -2.3651   55.2295 C.3     1  ZINC001122903793   -0.0400
      3 H3        -13.7469   -2.1068   54.7659 H       1  ZINC001122903793    0.1000
      4 S4        -15.1428   -4.0765   54.8019 S.3     1  ZINC001122903793   -0.2500
      5 C5        -13.8865   -5.0283   55.7100 C.3     1  ZINC001122903793   -0.0800
      6 C6        -13.8788   -4.5564   57.1680 C.3     1  ZINC001122903793    0.0700
      7 N7        -13.5105   -3.1403   57.2309 N.3     1  ZINC001122903793   -0.4800
      8 C8        -13.1104   -2.7876   58.5093 C.2     1  ZINC001122903793    0.3700
      9 N9        -13.8577   -2.7956   59.5884 N.2     1  ZINC001122903793   -0.2900
     10 N10       -13.1716   -2.4122   60.6051 N.2     1  ZINC001122903793   -0.2400
     11 C11       -11.9405   -2.1351   60.2364 C.2     1  ZINC001122903793    0.2600
     12 C12       -10.8503   -1.6653   61.1069 C.2     1  ZINC001122903793   -0.1600
     13 C13       -10.8974   -0.5987   61.9399 C.2     1  ZINC001122903793    0.1600
     14 Cl14      -12.3025    0.4069   62.1071 Cl      1  ZINC001122903793    0.0300
     15 N15        -9.7863   -0.3909   62.6107 N.2     1  ZINC001122903793   -0.4600
     16 C16        -8.8069   -1.2068   62.4021 C.2     1  ZINC001122903793    0.0300
     17 S17        -9.2535   -2.3950   61.2573 S.3     1  ZINC001122903793    0.2200
     18 N18       -11.8630   -2.3722   58.8823 N.pl3   1  ZINC001122903793   -0.4600
     19 C19       -10.6902   -2.2067   58.0200 C.3     1  ZINC001122903793    0.1100
     20 C20       -10.5687   -0.7405   57.6003 C.3     1  ZINC001122903793    0.0700
     21 H21       -11.4146   -0.1676   57.9800 H       1  ZINC001122903793    0.0800
     22 C22        -9.2371   -0.1414   58.1187 C.3     1  ZINC001122903793   -0.1500
     23 C23        -9.0179    1.0128   57.1029 C.3     1  ZINC001122903793   -0.1500
     24 C24        -9.5981    0.4185   55.8015 C.3     1  ZINC001122903793    0.0500
     25 O25       -10.4976   -0.6357   56.1694 O.3     1  ZINC001122903793   -0.3700
     26 C26       -14.5760   -2.2563   56.7532 C.3     1  ZINC001122903793    0.1000
     27 H27       -15.5214   -2.5488   57.2102 H       1  ZINC001122903793    0.0800
     28 C28       -14.2499   -0.8122   57.1395 C.3     1  ZINC001122903793   -0.1500
     29 H29       -15.5229   -0.3883   54.9961 H       1  ZINC001122903793    0.0800
     30 H30       -15.8781   -1.4967   53.6494 H       1  ZINC001122903793    0.0700
     31 H31       -16.7387   -1.6727   55.1976 H       1  ZINC001122903793    0.0700
     32 H32       -14.1314   -6.0896   55.6698 H       1  ZINC001122903793    0.1200
     33 H33       -12.9061   -4.8586   55.2650 H       1  ZINC001122903793    0.0900
     34 H34       -14.8713   -4.6919   57.5978 H       1  ZINC001122903793    0.0700
     35 H35       -13.1567   -5.1440   57.7349 H       1  ZINC001122903793    0.0900
     36 H36        -7.8432   -1.1489   62.8861 H       1  ZINC001122903793    0.2100
     37 H37        -9.7941   -2.5043   58.5644 H       1  ZINC001122903793    0.1200
     38 H38       -10.8004   -2.8307   57.1331 H       1  ZINC001122903793    0.1000
     39 H39        -9.3478    0.2433   59.1325 H       1  ZINC001122903793    0.0900
     40 H40        -8.4298   -0.8718   58.0636 H       1  ZINC001122903793    0.0800
     41 H41        -9.5701    1.9034   57.4026 H       1  ZINC001122903793    0.0800
     42 H42        -7.9564    1.2331   56.9891 H       1  ZINC001122903793    0.0900
     43 H43       -10.1389    1.1891   55.2520 H       1  ZINC001122903793    0.0700
     44 H44        -8.7921    0.0200   55.1854 H       1  ZINC001122903793    0.0700
     45 H45       -13.3033   -0.5195   56.6852 H       1  ZINC001122903793    0.0600
     46 H46       -15.0423   -0.1533   56.7844 H       1  ZINC001122903793    0.0800
     47 H47       -14.1718   -0.7350   58.2239 H       1  ZINC001122903793    0.0600
@<TRIPOS>BOND
     1     1     2    1
     2     1    29    1
     3     1    30    1
     4     1    31    1
     5     2     3    1
     6     2    26    1
     7     2     4    1
     8     4     5    1
     9     5     6    1
    10     5    32    1
    11     5    33    1
    12     6     7    1
    13     6    34    1
    14     6    35    1
    15     7     8    1
    16     7    26    1
    17     8    18    1
    18     8     9    2
    19     9    10    1
    20    10    11    2
    21    11    12    1
    22    11    18    1
    23    12    17    1
    24    12    13    2
    25    13    14    1
    26    13    15    1
    27    15    16    2
    28    16    17    1
    29    16    36    1
    30    18    19    1
    31    19    20    1
    32    19    37    1
    33    19    38    1
    34    20    21    1
    35    20    25    1
    36    20    22    1
    37    22    23    1
    38    22    39    1
    39    22    40    1
    40    23    24    1
    41    23    41    1
    42    23    42    1
    43    24    25    1
    44    24    43    1
    45    24    44    1
    46    26    27    1
    47    26    28    1
    48    28    45    1
    49    28    46    1
    50    28    47    1
@<TRIPOS>SUBSTRUCTURE
     1 ZINC001122903793        1 TEMP              0 ****  ****    0 ROOT


##########                                Name:    ZINC000523878927
##########                DOCK_Rotatable_Bonds:                   8
##########                         Heavy_Atoms:                  27
##########                    Molecular_Weight:             376.474
##########                DOCK_Rotatable_Bonds:                   8
##########                       Formal_Charge:          0.00999957
##########                     HBond_Acceptors:                   7
##########                        HBond_Donors:                   3
##########                         Heavy_Atoms:                  27
##########                          Grid_Score:          -31.397903
##########                     Grid_vdw_energy:          -27.877499
##########                      Grid_es_energy:           -3.520405
##########           Internal_energy_repulsive:            7.514112

@<TRIPOS>MOLECULE
ZINC000523878927
 56 58 1 0 0
SMALL
USER_CHARGES


@<TRIPOS>ATOM
      1 C1        -11.0930   -3.4330   53.0052 C.3     1  ZINC000523878927   -0.1500
      2 C2        -12.5301   -2.9192   53.1127 C.3     1  ZINC000523878927   -0.0900
      3 H3        -13.1082   -3.2757   52.2603 H       1  ZINC000523878927    0.0700
      4 C4        -12.5252   -1.3891   53.1216 C.3     1  ZINC000523878927   -0.1200
      5 C5        -11.7138   -0.8887   54.3182 C.3     1  ZINC000523878927   -0.1200
      6 C6        -12.3442   -1.4042   55.6135 C.3     1  ZINC000523878927   -0.1100
      7 C7        -12.3490   -2.9342   55.6046 C.3     1  ZINC000523878927   -0.1000
      8 H8        -11.3252   -3.3002   55.5280 H       1  ZINC000523878927    0.0800
      9 C9        -12.9794   -3.4497   56.8998 C.3     1  ZINC000523878927    0.1400
     10 N10       -12.3249   -2.8164   58.0474 N.am    1  ZINC000523878927   -0.7400
     11 C11       -11.2423   -3.3914   58.6075 C.2     1  ZINC000523878927    0.7200
     12 O12       -10.8097   -4.4364   58.1613 O.2     1  ZINC000523878927   -0.5800
     13 N13       -10.6393   -2.8079   59.6622 N.am    1  ZINC000523878927   -0.6400
     14 C14        -9.4531   -3.3254   60.3684 C.3     1  ZINC000523878927    0.1000
     15 C15        -8.8066   -2.0794   61.0234 C.3     1  ZINC000523878927   -0.1400
     16 C16       -10.0579   -1.2625   61.4410 C.3     1  ZINC000523878927    0.1500
     17 H17       -10.4502   -1.6179   62.3937 H       1  ZINC000523878927    0.1100
     18 N18        -9.7435    0.1667   61.5127 N.am    1  ZINC000523878927   -0.7300
     19 C19       -10.4959    0.9847   62.2751 C.2     1  ZINC000523878927    0.7100
     20 O20       -11.4346    0.5363   62.9046 O.2     1  ZINC000523878927   -0.5700
     21 N21       -10.2077    2.2997   62.3399 N.am    1  ZINC000523878927   -0.6800
     22 C22       -10.9896    3.1498   63.1322 C.ar    1  ZINC000523878927    0.1500
     23 C23       -10.7649    3.2267   64.5001 C.ar    1  ZINC000523878927   -0.1200
     24 C24       -11.5368    4.0659   65.2796 C.ar    1  ZINC000523878927   -0.1300
     25 C25       -12.5344    4.8298   64.6978 C.ar    1  ZINC000523878927    0.0800
     26 F26       -13.2885    5.6498   65.4620 F       1  ZINC000523878927   -0.1400
     27 C27       -12.7597    4.7548   63.3336 C.ar    1  ZINC000523878927   -0.1300
     28 C28       -11.9866    3.9208   62.5498 C.ar    1  ZINC000523878927   -0.0900
     29 C29       -11.0518   -1.5467   60.2952 C.3     1  ZINC000523878927    0.1200
     30 C30       -13.1604   -3.4347   54.4080 C.3     1  ZINC000523878927   -0.1100
     31 H31       -11.0964   -4.5230   52.9989 H       1  ZINC000523878927    0.0500
     32 H32       -10.6438   -3.0657   52.0825 H       1  ZINC000523878927    0.0500
     33 H33       -10.5149   -3.0765   53.8577 H       1  ZINC000523878927    0.0600
     34 H34       -12.0761   -1.0219   52.1989 H       1  ZINC000523878927    0.0600
     35 H35       -13.5491   -1.0231   53.1982 H       1  ZINC000523878927    0.0600
     36 H36       -10.6900   -1.2548   54.2416 H       1  ZINC000523878927    0.0700
     37 H37       -11.7104    0.2013   54.3245 H       1  ZINC000523878927    0.0600
     38 H38       -11.7660   -1.0476   56.4660 H       1  ZINC000523878927    0.0600
     39 H39       -13.3680   -1.0381   55.6901 H       1  ZINC000523878927    0.0600
     40 H40       -14.0420   -3.2073   56.9083 H       1  ZINC000523878927    0.0700
     41 H41       -12.8528   -4.5307   56.9604 H       1  ZINC000523878927    0.0700
     42 H42       -12.6708   -1.9833   58.4040 H       1  ZINC000523878927    0.3900
     43 H43        -9.7499   -4.0445   61.1318 H       1  ZINC000523878927    0.0800
     44 H44        -8.7615   -3.7846   59.6620 H       1  ZINC000523878927    0.0800
     45 H45        -8.2142   -2.3592   61.8946 H       1  ZINC000523878927    0.1000
     46 H46        -8.2027   -1.5282   60.3028 H       1  ZINC000523878927    0.0800
     47 H47        -8.9940    0.5241   61.0116 H       1  ZINC000523878927    0.4000
     48 H48        -9.4588    2.6573   61.8378 H       1  ZINC000523878927    0.4100
     49 H49        -9.9873    2.6304   64.9544 H       1  ZINC000523878927    0.1400
     50 H50       -11.3623    4.1261   66.3437 H       1  ZINC000523878927    0.1400
     51 H51       -13.5383    5.3515   62.8816 H       1  ZINC000523878927    0.1400
     52 H52       -12.1624    3.8628   61.4858 H       1  ZINC000523878927    0.1500
     53 H53       -11.0221   -0.7345   59.5688 H       1  ZINC000523878927    0.0700
     54 H54       -12.0598   -1.6513   60.6963 H       1  ZINC000523878927    0.0800
     55 H55       -14.1843   -3.0686   54.4846 H       1  ZINC000523878927    0.0700
     56 H56       -13.1639   -4.5247   54.4017 H       1  ZINC000523878927    0.0700
@<TRIPOS>BOND
     1     1     2    1
     2     1    31    1
     3     1    32    1
     4     1    33    1
     5     2     3    1
     6     2    30    1
     7     2     4    1
     8     4     5    1
     9     4    34    1
    10     4    35    1
    11     5     6    1
    12     5    36    1
    13     5    37    1
    14     6     7    1
    15     6    38    1
    16     6    39    1
    17     7     8    1
    18     7     9    1
    19     7    30    1
    20     9    10    1
    21     9    40    1
    22     9    41    1
    23    10    11   am
    24    10    42    1
    25    11    12    2
    26    11    13   am
    27    13    29    1
    28    13    14    1
    29    14    15    1
    30    14    43    1
    31    14    44    1
    32    15    16    1
    33    15    45    1
    34    15    46    1
    35    16    17    1
    36    16    18    1
    37    16    29    1
    38    18    19   am
    39    18    47    1
    40    19    20    2
    41    19    21   am
    42    21    22    1
    43    21    48    1
    44    22    28   ar
    45    22    23   ar
    46    23    24   ar
    47    23    49    1
    48    24    25   ar
    49    24    50    1
    50    25    26    1
    51    25    27   ar
    52    27    28   ar
    53    27    51    1
    54    28    52    1
    55    29    53    1
    56    29    54    1
    57    30    55    1
    58    30    56    1
@<TRIPOS>SUBSTRUCTURE
     1 ZINC000523878927        1 TEMP              0 ****  ****    0 ROOT


##########                                Name:    ZINC001016082614
##########                DOCK_Rotatable_Bonds:                   6
##########                         Heavy_Atoms:                  25
##########                    Molecular_Weight:             348.402
##########                DOCK_Rotatable_Bonds:                   6
##########                       Formal_Charge:         -0.00999998
##########                     HBond_Acceptors:                   8
##########                        HBond_Donors:                   1
##########                         Heavy_Atoms:                  25
##########                          Grid_Score:          -31.395990
##########                     Grid_vdw_energy:          -29.810425
##########                      Grid_es_energy:           -1.585565
##########           Internal_energy_repulsive:           39.048523

@<TRIPOS>MOLECULE
ZINC001016082614
 49 51 1 0 0
SMALL
USER_CHARGES


@<TRIPOS>ATOM
      1 C1        -14.0089    2.0157   61.2204 C.3     1  ZINC001016082614   -0.1700
      2 C2        -13.2984    1.1187   62.2360 C.3     1  ZINC001016082614    0.1000
      3 N3        -13.1297   -0.2218   61.6696 N.am    1  ZINC001016082614   -0.6100
      4 C4        -13.8364   -1.2569   62.1656 C.2     1  ZINC001016082614    0.6100
      5 O5        -13.6964   -2.3702   61.6951 O.2     1  ZINC001016082614   -0.5100
      6 C6        -14.7748   -1.0409   63.2727 C.2     1  ZINC001016082614   -0.1100
      7 C7        -15.8111   -0.1554   63.3000 C.2     1  ZINC001016082614    0.0600
      8 N8        -16.4116   -0.2776   64.4882 N.2     1  ZINC001016082614   -0.4900
      9 C9        -15.7930   -1.1927   65.1851 C.2     1  ZINC001016082614    0.2000
     10 O10       -14.7829   -1.6864   64.4622 O.3     1  ZINC001016082614   -0.1900
     11 C11       -12.1927   -0.4375   60.5642 C.3     1  ZINC001016082614    0.1600
     12 H12       -11.6614    0.4954   60.3756 H       1  ZINC001016082614    0.0800
     13 C13       -11.1786   -1.4955   60.9882 C.3     1  ZINC001016082614   -0.1300
     14 C14        -9.8945   -1.2927   60.2224 C.3     1  ZINC001016082614   -0.1300
     15 C15        -9.9069   -2.1377   58.9357 C.3     1  ZINC001016082614    0.1000
     16 N16       -11.2259   -2.1232   58.2732 N.am    1  ZINC001016082614   -0.6000
     17 C17       -11.7102   -3.2769   57.7725 C.2     1  ZINC001016082614    0.5000
     18 O18       -11.0649   -4.2989   57.8713 O.2     1  ZINC001016082614   -0.5200
     19 C19       -13.0537   -3.2969   57.0900 C.3     1  ZINC001016082614    0.1100
     20 H20       -13.5960   -2.3748   57.2990 H       1  ZINC001016082614    0.1100
     21 C21       -13.8742   -4.5183   57.5606 C.3     1  ZINC001016082614   -0.1200
     22 C22       -13.5299   -5.5658   56.4766 C.3     1  ZINC001016082614   -0.1600
     23 C23       -13.1412   -4.7385   55.2712 C.2     1  ZINC001016082614    0.5300
     24 O24       -13.0709   -5.1569   54.1350 O.2     1  ZINC001016082614   -0.5300
     25 N25       -12.8853   -3.4700   55.6424 N.am    1  ZINC001016082614   -0.7100
     26 C26       -12.0198   -0.9223   58.1396 C.3     1  ZINC001016082614    0.1300
     27 C27       -12.9628   -0.7879   59.3610 C.3     1  ZINC001016082614   -0.1600
     28 H28       -14.1344    3.0131   61.6418 H       1  ZINC001016082614    0.0700
     29 H29       -13.4119    2.0781   60.3106 H       1  ZINC001016082614    0.0500
     30 H30       -14.9865    1.5949   60.9853 H       1  ZINC001016082614    0.0600
     31 H31       -12.3207    1.5395   62.4711 H       1  ZINC001016082614    0.0900
     32 H32       -13.8953    1.0562   63.1458 H       1  ZINC001016082614    0.0900
     33 H33       -16.0946    0.5211   62.5072 H       1  ZINC001016082614    0.2000
     34 H34       -16.0582   -1.5042   66.1847 H       1  ZINC001016082614    0.2600
     35 H35       -10.9831   -1.4044   62.0567 H       1  ZINC001016082614    0.0700
     36 H36       -11.5768   -2.4873   60.7742 H       1  ZINC001016082614    0.0800
     37 H37        -9.7915   -0.2392   59.9620 H       1  ZINC001016082614    0.0700
     38 H38        -9.0514   -1.5934   60.8443 H       1  ZINC001016082614    0.0800
     39 H39        -9.1601   -1.7437   58.2462 H       1  ZINC001016082614    0.0700
     40 H40        -9.6476   -3.1666   59.1855 H       1  ZINC001016082614    0.0800
     41 H41       -13.5461   -4.8528   58.5447 H       1  ZINC001016082614    0.1000
     42 H42       -14.9409   -4.2944   57.5619 H       1  ZINC001016082614    0.1000
     43 H43       -12.6942   -6.1872   56.7984 H       1  ZINC001016082614    0.1100
     44 H44       -14.4004   -6.1821   56.2516 H       1  ZINC001016082614    0.1100
     45 H45       -12.6236   -2.7633   55.0317 H       1  ZINC001016082614    0.4200
     46 H46       -11.3610   -0.0553   58.0903 H       1  ZINC001016082614    0.0800
     47 H47       -12.6131   -0.9792   57.2270 H       1  ZINC001016082614    0.0900
     48 H48       -13.4805   -1.7334   59.5227 H       1  ZINC001016082614    0.0900
     49 H49       -13.6969   -0.0063   59.1657 H       1  ZINC001016082614    0.0700
@<TRIPOS>BOND
     1     1     2    1
     2     1    28    1
     3     1    29    1
     4     1    30    1
     5     2     3    1
     6     2    31    1
     7     2    32    1
     8     3     4   am
     9     3    11    1
    10     4     5    2
    11     4     6    1
    12     6    10    1
    13     6     7    2
    14     7     8    1
    15     7    33    1
    16     8     9    2
    17     9    10    1
    18     9    34    1
    19    11    12    1
    20    11    27    1
    21    11    13    1
    22    13    14    1
    23    13    35    1
    24    13    36    1
    25    14    15    1
    26    14    37    1
    27    14    38    1
    28    15    16    1
    29    15    39    1
    30    15    40    1
    31    16    17   am
    32    16    26    1
    33    17    18    2
    34    17    19    1
    35    19    20    1
    36    19    25    1
    37    19    21    1
    38    21    22    1
    39    21    41    1
    40    21    42    1
    41    22    23    1
    42    22    43    1
    43    22    44    1
    44    23    24    2
    45    23    25   am
    46    25    45    1
    47    26    27    1
    48    26    46    1
    49    26    47    1
    50    27    48    1
    51    27    49    1
@<TRIPOS>SUBSTRUCTURE
     1 ZINC001016082614        1 TEMP              0 ****  ****    0 ROOT


##########                                Name:    ZINC001067560454
##########                DOCK_Rotatable_Bonds:                   4
##########                         Heavy_Atoms:                  25
##########                    Molecular_Weight:             342.444
##########                DOCK_Rotatable_Bonds:                   4
##########                       Formal_Charge:          0.00999971
##########                     HBond_Acceptors:                   7
##########                        HBond_Donors:                   1
##########                         Heavy_Atoms:                  25
##########                          Grid_Score:          -31.393995
##########                     Grid_vdw_energy:          -29.763287
##########                      Grid_es_energy:           -1.630709
##########           Internal_energy_repulsive:           15.493600

@<TRIPOS>MOLECULE
ZINC001067560454
 51 54 1 0 0
SMALL
USER_CHARGES


@<TRIPOS>ATOM
      1 C1        -13.8017   -1.4080   56.4721 C.3     1  ZINC001067560454   -0.1500
      2 C2        -13.4465   -1.9919   55.1032 C.3     1  ZINC001067560454    0.1000
      3 H3        -13.9756   -2.9344   54.9621 H       1  ZINC001067560454    0.0600
      4 C4        -13.8576   -1.0070   54.0065 C.3     1  ZINC001067560454   -0.1200
      5 C5        -13.4822   -1.5866   52.6399 C.3     1  ZINC001067560454    0.1400
      6 H6        -14.0303   -2.5143   52.4745 H       1  ZINC001067560454    0.0900
      7 N7        -13.8219   -0.6235   51.5895 N.am    1  ZINC001067560454   -0.7200
      8 C8        -13.9591   -1.0375   50.3143 C.2     1  ZINC001067560454    0.5400
      9 O9        -13.8000   -2.2071   50.0360 O.2     1  ZINC001067560454   -0.5300
     10 C10       -14.3103   -0.0470   49.2341 C.3     1  ZINC001067560454   -0.1100
     11 C11       -14.0206   -0.5745   47.8275 C.3     1  ZINC001067560454   -0.1300
     12 C12       -15.7142    0.5613   49.3890 C.3     1  ZINC001067560454   -0.1200
     13 C13       -15.0600    1.6534   50.2517 C.3     1  ZINC001067560454   -0.1400
     14 C14       -13.7562    1.3647   49.4890 C.3     1  ZINC001067560454   -0.1200
     15 C15       -11.9776   -1.8690   52.6099 C.3     1  ZINC001067560454   -0.1200
     16 C16       -11.6209   -2.8289   53.7471 C.3     1  ZINC001067560454    0.0600
     17 N17       -11.9989   -2.2283   55.0328 N.3     1  ZINC001067560454   -0.4900
     18 C18       -11.5725   -3.0119   56.0908 C.ar    1  ZINC001067560454    0.4400
     19 C19       -10.8042   -2.4604   57.1300 C.ar    1  ZINC001067560454   -0.0800
     20 N20       -10.3144   -1.2269   57.4014 N.2     1  ZINC001067560454   -0.4700
     21 C21        -9.6525   -1.2605   58.5214 C.2     1  ZINC001067560454    0.2700
     22 N22        -9.6767   -2.5213   59.0391 N.pl3   1  ZINC001067560454   -0.4800
     23 C23        -9.0458   -2.9584   60.2869 C.3     1  ZINC001067560454    0.0800
     24 C24       -10.4009   -3.3059   58.1775 C.ar    1  ZINC001067560454    0.2800
     25 N25       -10.7579   -4.5857   58.1484 N.ar    1  ZINC001067560454   -0.5200
     26 C26       -11.4791   -5.0586   57.1538 C.ar    1  ZINC001067560454    0.3300
     27 N27       -11.8848   -4.3024   56.1503 N.ar    1  ZINC001067560454   -0.5100
     28 H28       -13.2726   -0.4655   56.6135 H       1  ZINC001067560454    0.0700
     29 H29       -14.8762   -1.2329   56.5247 H       1  ZINC001067560454    0.0700
     30 H30       -13.5092   -2.1096   57.2534 H       1  ZINC001067560454    0.0500
     31 H31       -14.9346   -0.8437   54.0491 H       1  ZINC001067560454    0.0800
     32 H32       -13.3392   -0.0598   54.1549 H       1  ZINC001067560454    0.0800
     33 H33       -13.9480    0.3122   51.8119 H       1  ZINC001067560454    0.4000
     34 H34       -14.4644   -1.5632   47.7116 H       1  ZINC001067560454    0.0600
     35 H35       -14.4483    0.1045   47.0897 H       1  ZINC001067560454    0.0700
     36 H36       -12.9428   -0.6403   47.6789 H       1  ZINC001067560454    0.0600
     37 H37       -16.1334    0.9354   48.4549 H       1  ZINC001067560454    0.0900
     38 H38       -16.4070   -0.0742   49.9405 H       1  ZINC001067560454    0.0700
     39 H39       -15.4601    2.6510   50.0706 H       1  ZINC001067560454    0.0700
     40 H40       -15.0110    1.4019   51.3111 H       1  ZINC001067560454    0.0800
     41 H41       -12.8684    1.3777   50.1213 H       1  ZINC001067560454    0.0800
     42 H42       -13.6401    1.9584   48.5823 H       1  ZINC001067560454    0.0900
     43 H43       -11.7112   -2.3215   51.6547 H       1  ZINC001067560454    0.0800
     44 H44       -11.4295   -0.9353   52.7364 H       1  ZINC001067560454    0.0800
     45 H45       -12.1588   -3.7674   53.6124 H       1  ZINC001067560454    0.0700
     46 H46       -10.5480   -3.0208   53.7375 H       1  ZINC001067560454    0.0800
     47 H47        -9.1567   -0.4144   58.9737 H       1  ZINC001067560454    0.2300
     48 H48        -9.7489   -2.8384   61.1111 H       1  ZINC001067560454    0.0800
     49 H49        -8.7608   -4.0070   60.2021 H       1  ZINC001067560454    0.0900
     50 H50        -8.1580   -2.3548   60.4760 H       1  ZINC001067560454    0.0900
     51 H51       -11.7521   -6.1035   57.1607 H       1  ZINC001067560454    0.2100
@<TRIPOS>BOND
     1     1     2    1
     2     1    28    1
     3     1    29    1
     4     1    30    1
     5     2     3    1
     6     2    17    1
     7     2     4    1
     8     4     5    1
     9     4    31    1
    10     4    32    1
    11     5     6    1
    12     5     7    1
    13     5    15    1
    14     7     8   am
    15     7    33    1
    16     8     9    2
    17     8    10    1
    18    10    14    1
    19    10    11    1
    20    10    12    1
    21    11    34    1
    22    11    35    1
    23    11    36    1
    24    12    13    1
    25    12    37    1
    26    12    38    1
    27    13    14    1
    28    13    39    1
    29    13    40    1
    30    14    41    1
    31    14    42    1
    32    15    16    1
    33    15    43    1
    34    15    44    1
    35    16    17    1
    36    16    45    1
    37    16    46    1
    38    17    18    1
    39    18    27   ar
    40    18    19   ar
    41    19    24   ar
    42    19    20    1
    43    20    21    2
    44    21    22    1
    45    21    47    1
    46    22    23    1
    47    22    24    1
    48    23    48    1
    49    23    49    1
    50    23    50    1
    51    24    25   ar
    52    25    26   ar
    53    26    27   ar
    54    26    51    1
@<TRIPOS>SUBSTRUCTURE
     1 ZINC001067560454        1 TEMP              0 ****  ****    0 ROOT


##########                                Name:    ZINC001060620810
##########                DOCK_Rotatable_Bonds:                   5
##########                         Heavy_Atoms:                  24
##########                    Molecular_Weight:             332.421
##########                DOCK_Rotatable_Bonds:                   5
##########                       Formal_Charge:           0.0299998
##########                     HBond_Acceptors:                   6
##########                        HBond_Donors:                   2
##########                         Heavy_Atoms:                  24
##########                          Grid_Score:          -31.390547
##########                     Grid_vdw_energy:          -31.304380
##########                      Grid_es_energy:           -0.086166
##########           Internal_energy_repulsive:            8.840536

@<TRIPOS>MOLECULE
ZINC001060620810
 49 52 1 0 0
SMALL
USER_CHARGES


@<TRIPOS>ATOM
      1 O1        -14.9289   -4.1913   55.2906 O.2     1  ZINC001060620810   -0.5400
      2 C2        -14.6994   -3.1707   55.9043 C.2     1  ZINC001060620810    0.5500
      3 N3        -13.7785   -2.3006   55.4446 N.am    1  ZINC001060620810   -0.7200
      4 C4        -13.0561   -2.5866   54.2027 C.3     1  ZINC001060620810    0.1400
      5 C5        -12.8891   -1.2945   53.4006 C.3     1  ZINC001060620810   -0.1300
      6 C6        -12.1346   -1.5932   52.1036 C.3     1  ZINC001060620810   -0.1300
      7 C7        -10.7565   -2.1688   52.4362 C.3     1  ZINC001060620810    0.1600
      8 N8         -9.9996   -1.1965   53.2285 N.pl3   1  ZINC001060620810   -0.6900
      9 C9         -8.8783   -0.5867   52.6899 C.ar    1  ZINC001060620810    0.5600
     10 N10        -8.4551    0.5577   53.2053 N.ar    1  ZINC001060620810   -0.5400
     11 C11        -7.3850    1.1646   52.7184 C.ar    1  ZINC001060620810    0.1700
     12 C12        -6.7114    0.5927   51.6482 C.ar    1  ZINC001060620810   -0.0700
     13 F13        -5.6180    1.1875   51.1229 F       1  ZINC001060620810   -0.1300
     14 C14        -7.1859   -0.6041   51.1300 C.ar    1  ZINC001060620810    0.1800
     15 N15        -8.2591   -1.1595   51.6687 N.ar    1  ZINC001060620810   -0.5500
     16 C16       -10.9235   -3.4610   53.2382 C.3     1  ZINC001060620810   -0.1200
     17 C17       -11.6780   -3.1621   54.5353 C.3     1  ZINC001060620810   -0.1300
     18 C18       -15.4439   -2.8755   57.1809 C.3     1  ZINC001060620810   -0.1500
     19 C19       -16.9115   -2.4998   57.0239 C.3     1  ZINC001060620810   -0.1500
     20 C20       -15.8930   -1.4352   57.3709 C.3     1  ZINC001060620810   -0.1100
     21 H21       -15.6542   -0.7288   56.5760 H       1  ZINC001060620810    0.1100
     22 C22       -15.9630   -0.8202   58.7651 C.3     1  ZINC001060620810   -0.0900
     23 C23       -15.1125   -1.6251   59.7481 C.3     1  ZINC001060620810   -0.1200
     24 C24       -15.5411   -3.0951   59.6751 C.3     1  ZINC001060620810   -0.1200
     25 C25       -14.9974   -3.6977   58.3797 C.3     1  ZINC001060620810   -0.0800
     26 H26       -13.5941   -1.4849   55.9362 H       1  ZINC001060620810    0.4000
     27 H27       -13.6193   -3.3101   53.6131 H       1  ZINC001060620810    0.0900
     28 H28       -13.8708   -0.8844   53.1636 H       1  ZINC001060620810    0.0700
     29 H29       -12.3259   -0.5711   53.9902 H       1  ZINC001060620810    0.0600
     30 H30       -12.0156   -0.6727   51.5321 H       1  ZINC001060620810    0.0700
     31 H31       -12.6978   -2.3166   51.5140 H       1  ZINC001060620810    0.0800
     32 H32       -10.2190   -2.3816   51.5121 H       1  ZINC001060620810    0.1000
     33 H33       -10.2834   -0.9798   54.1304 H       1  ZINC001060620810    0.4100
     34 H34        -7.0427    2.0956   53.1454 H       1  ZINC001060620810    0.1800
     35 H35        -6.6857   -1.0759   50.2973 H       1  ZINC001060620810    0.1800
     36 H36        -9.9418   -3.8710   53.4751 H       1  ZINC001060620810    0.0800
     37 H37       -11.4868   -4.1843   52.6486 H       1  ZINC001060620810    0.0900
     38 H38       -11.1148   -2.4388   55.1248 H       1  ZINC001060620810    0.0700
     39 H39       -11.7971   -4.0827   55.1067 H       1  ZINC001060620810    0.0800
     40 H40       -17.3225   -2.4839   56.0145 H       1  ZINC001060620810    0.1000
     41 H41       -17.5995   -2.8167   57.8078 H       1  ZINC001060620810    0.1100
     42 H42       -17.0024   -0.8319   59.0932 H       1  ZINC001060620810    0.0700
     43 H43       -15.6048    0.2088   58.7359 H       1  ZINC001060620810    0.0700
     44 H44       -15.2668   -1.2486   60.7592 H       1  ZINC001060620810    0.0700
     45 H45       -14.0599   -1.5370   59.4786 H       1  ZINC001060620810    0.0700
     46 H46       -16.6293   -3.1597   59.6802 H       1  ZINC001060620810    0.0700
     47 H47       -15.1358   -3.6373   60.5294 H       1  ZINC001060620810    0.0700
     48 H48       -15.3674   -4.7176   58.2744 H       1  ZINC001060620810    0.0700
     49 H49       -13.9082   -3.7127   58.4201 H       1  ZINC001060620810    0.0700
@<TRIPOS>BOND
     1     1     2    2
     2     2     3   am
     3     2    18    1
     4     3     4    1
     5     3    26    1
     6     4    17    1
     7     4     5    1
     8     4    27    1
     9     5     6    1
    10     5    28    1
    11     5    29    1
    12     6     7    1
    13     6    30    1
    14     6    31    1
    15     7     8    1
    16     7    16    1
    17     7    32    1
    18     8     9    1
    19     8    33    1
    20     9    15   ar
    21     9    10   ar
    22    10    11   ar
    23    11    12   ar
    24    11    34    1
    25    12    13    1
    26    12    14   ar
    27    14    15   ar
    28    14    35    1
    29    16    17    1
    30    16    36    1
    31    16    37    1
    32    17    38    1
    33    17    39    1
    34    18    20    1
    35    18    25    1
    36    18    19    1
    37    19    20    1
    38    19    40    1
    39    19    41    1
    40    20    21    1
    41    20    22    1
    42    22    23    1
    43    22    42    1
    44    22    43    1
    45    23    24    1
    46    23    44    1
    47    23    45    1
    48    24    25    1
    49    24    46    1
    50    24    47    1
    51    25    48    1
    52    25    49    1
@<TRIPOS>SUBSTRUCTURE
     1 ZINC001060620810        1 TEMP              0 ****  ****    0 ROOT


##########                                Name:    ZINC000328606936
##########                DOCK_Rotatable_Bonds:                   6
##########                         Heavy_Atoms:                  23
##########                    Molecular_Weight:             338.428
##########                DOCK_Rotatable_Bonds:                   6
##########                       Formal_Charge:           0.0100001
##########                     HBond_Acceptors:                   7
##########                        HBond_Donors:                   2
##########                         Heavy_Atoms:                  23
##########                          Grid_Score:          -31.378490
##########                     Grid_vdw_energy:          -29.275307
##########                      Grid_es_energy:           -2.103183
##########           Internal_energy_repulsive:           11.007905

@<TRIPOS>MOLECULE
ZINC000328606936
 45 47 1 0 0
SMALL
USER_CHARGES


@<TRIPOS>ATOM
      1 C1         -8.9370   -0.0293   63.2879 C.3     1  <0>        -0.0500
      2 N2         -9.7185    0.5832   62.2053 N.4     1  <0>        -0.3500
      3 H3         -9.0932    1.0193   61.5443 H       1  <0>         0.4200
      4 C4        -10.6221    1.5963   62.7664 C.3     1  <0>        -0.0900
      5 C5        -11.4459    0.9801   63.8676 C.2     1  <0>         0.4900
      6 O6        -12.5427    0.5096   63.6181 O.co2   1  <0>        -0.6700
      7 O7        -11.0156    0.9519   65.0080 O.co2   1  <0>        -0.6400
      8 C8        -10.5067   -0.4524   61.5239 C.3     1  <0>         0.0100
      9 H9        -11.1870   -0.9335   62.2267 H       1  <0>         0.1600
     10 C10        -9.5735   -1.4992   60.8783 C.3     1  <0>         0.1000
     11 N11       -10.2378   -1.8565   59.6032 N.am    1  <0>        -0.6200
     12 C12       -10.3386   -3.0751   59.0366 C.2     1  <0>         0.6200
     13 O13        -9.8468   -4.0438   59.5851 O.2     1  <0>        -0.5100
     14 C14       -11.0406   -3.2339   57.7596 C.2     1  <0>        -0.2800
     15 C15       -10.7676   -2.5454   56.6175 C.2     1  <0>        -0.0300
     16 C16       -11.5767   -2.8823   55.5480 C.2     1  <0>        -0.1200
     17 C17       -12.4928   -3.8357   55.8323 C.2     1  <0>        -0.1900
     18 C18       -13.4974   -4.3815   54.8350 C.3     1  <0>        -0.0500
     19 C19       -13.5818   -3.4213   53.6458 C.3     1  <0>        -0.1200
     20 C20       -12.1655   -3.1186   53.1481 C.3     1  <0>        -0.1200
     21 C21       -11.4490   -2.2381   54.1736 C.3     1  <0>        -0.0600
     22 S22       -12.3634   -4.3481   57.4560 S.3     1  <0>         0.2000
     23 C23       -10.7663   -0.5702   59.0923 C.3     1  <0>         0.0600
     24 C24       -11.2954    0.1607   60.3482 C.3     1  <0>         0.0800
     25 H25       -11.0971    1.2300   60.2758 H       1  <0>         0.1000
     26 O26       -12.6960   -0.0745   60.5067 O.3     1  <0>        -0.5400
     27 H27        -9.6124   -0.5004   64.0020 H       1  <0>         0.1100
     28 H28        -8.2665   -0.7811   62.8715 H       1  <0>         0.1100
     29 H29        -8.3522    0.7391   63.7935 H       1  <0>         0.1600
     30 H30       -10.0364    2.4223   63.1697 H       1  <0>         0.1200
     31 H31       -11.2828    1.9678   61.9830 H       1  <0>         0.1300
     32 H32        -8.5915   -1.0664   60.6870 H       1  <0>         0.1000
     33 H33        -9.4848   -2.3762   61.5194 H       1  <0>         0.1200
     34 H34        -9.9878   -1.8010   56.5526 H       1  <0>         0.1500
     35 H35       -13.1734   -5.3633   54.4899 H       1  <0>         0.0900
     36 H36       -14.4756   -4.4630   55.3092 H       1  <0>         0.0800
     37 H37       -14.1591   -3.8827   52.8446 H       1  <0>         0.0700
     38 H38       -14.0643   -2.4952   53.9582 H       1  <0>         0.0700
     39 H39       -11.6166   -4.0519   53.0221 H       1  <0>         0.0700
     40 H40       -12.2191   -2.5953   52.1934 H       1  <0>         0.0700
     41 H41       -11.9066   -1.2489   54.1889 H       1  <0>         0.0800
     42 H42       -10.3954   -2.1513   53.9080 H       1  <0>         0.0800
     43 H43        -9.9708    0.0077   58.6222 H       1  <0>         0.1000
     44 H44       -11.5777   -0.7463   58.3861 H       1  <0>         0.1000
     45 H45       -13.2381    0.2797   59.7884 H       1  <0>         0.4000
@<TRIPOS>BOND
     1     1     2    1
     2     1    27    1
     3     1    28    1
     4     1    29    1
     5     2     3    1
     6     2     4    1
     7     2     8    1
     8     4     5    1
     9     4    30    1
    10     4    31    1
    11     5     6   ar
    12     5     7   ar
    13     8     9    1
    14     8    24    1
    15     8    10    1
    16    10    11    1
    17    10    32    1
    18    10    33    1
    19    11    12   am
    20    11    23    1
    21    12    13    2
    22    12    14    1
    23    14    22    1
    24    14    15    2
    25    15    16    1
    26    15    34    1
    27    16    21    1
    28    16    17    2
    29    17    18    1
    30    17    22    1
    31    18    19    1
    32    18    35    1
    33    18    36    1
    34    19    20    1
    35    19    37    1
    36    19    38    1
    37    20    21    1
    38    20    39    1
    39    20    40    1
    40    21    41    1
    41    21    42    1
    42    23    24    1
    43    23    43    1
    44    23    44    1
    45    24    25    1
    46    24    26    1
    47    26    45    1
@<TRIPOS>SUBSTRUCTURE
     1 <0>         1 TEMP              0 ****  ****    0 ROOT


##########                                Name:    ZINC000450219577
##########                DOCK_Rotatable_Bonds:                   8
##########                         Heavy_Atoms:                  26
##########                    Molecular_Weight:             353.421
##########                DOCK_Rotatable_Bonds:                   8
##########                       Formal_Charge:          -0.0199997
##########                     HBond_Acceptors:                   6
##########                        HBond_Donors:                   1
##########                         Heavy_Atoms:                  26
##########                          Grid_Score:          -31.361280
##########                     Grid_vdw_energy:          -30.702600
##########                      Grid_es_energy:           -0.658680
##########           Internal_energy_repulsive:           29.132250

@<TRIPOS>MOLECULE
ZINC000450219577
 49 51 1 0 0
SMALL
USER_CHARGES


@<TRIPOS>ATOM
      1 C1        -12.5975   -0.2612   54.3014 C.3     1  ZINC000450219577   -0.1800
      2 C2        -11.2963   -0.6299   53.5857 C.3     1  ZINC000450219577    0.1200
      3 C3        -11.6207   -1.2540   52.2271 C.3     1  ZINC000450219577   -0.1800
      4 C4        -10.4530    0.6300   53.3800 C.3     1  ZINC000450219577   -0.1400
      5 O5        -10.5542   -1.5829   54.3914 O.3     1  ZINC000450219577   -0.3400
      6 C6        -10.9809   -2.8555   54.3773 C.2     1  ZINC000450219577    0.4700
      7 O7        -10.8146   -3.5375   53.3939 O.2     1  ZINC000450219577   -0.5000
      8 C8        -11.6672   -3.4335   55.5880 C.3     1  ZINC000450219577    0.2000
      9 H9        -11.4149   -4.4900   55.6790 H       1  ZINC000450219577    0.1400
     10 N10       -11.2230   -2.7203   56.7881 N.am    1  ZINC000450219577   -0.7100
     11 C11       -10.9876   -3.4003   57.9278 C.2     1  ZINC000450219577    0.5800
     12 O12       -11.1452   -4.6051   57.9602 O.2     1  ZINC000450219577   -0.5200
     13 C13       -10.5376   -2.6809   59.1383 C.ar    1  ZINC000450219577   -0.2500
     14 C14       -10.9471   -1.3661   59.3878 C.ar    1  ZINC000450219577    0.1900
     15 N15       -10.5212   -0.7610   60.4826 N.ar    1  ZINC000450219577   -0.5100
     16 C16        -9.7232   -1.3777   61.3321 C.ar    1  ZINC000450219577    0.3800
     17 C17        -9.2650   -0.6445   62.5663 C.3     1  ZINC000450219577   -0.1100
     18 C18        -9.3621    0.8825   62.5579 C.3     1  ZINC000450219577   -0.1500
     19 C19       -10.3323    0.0590   63.4073 C.3     1  ZINC000450219577   -0.1500
     20 N20        -9.3137   -2.6158   61.1362 N.ar    1  ZINC000450219577   -0.5200
     21 C21        -9.6950   -3.2974   60.0702 C.ar    1  ZINC000450219577    0.2200
     22 C22       -13.1594   -3.2844   55.4386 C.ar    1  ZINC000450219577   -0.1100
     23 C23       -13.8017   -3.8264   54.3410 C.ar    1  ZINC000450219577   -0.1000
     24 C24       -15.1704   -3.6897   54.2041 C.ar    1  ZINC000450219577   -0.1200
     25 C25       -15.8969   -3.0114   55.1648 C.ar    1  ZINC000450219577   -0.1100
     26 C26       -15.2547   -2.4703   56.2628 C.ar    1  ZINC000450219577   -0.1200
     27 C27       -13.8866   -2.6107   56.4020 C.ar    1  ZINC000450219577   -0.0800
     28 H28       -13.1984   -1.1588   54.4479 H       1  ZINC000450219577    0.0800
     29 H29       -12.3664    0.1834   55.2693 H       1  ZINC000450219577    0.0600
     30 H30       -13.1547    0.4543   53.6966 H       1  ZINC000450219577    0.0700
     31 H31       -12.1778   -0.5385   51.6222 H       1  ZINC000450219577    0.0700
     32 H32       -10.6937   -1.5165   51.7172 H       1  ZINC000450219577    0.0600
     33 H33       -12.2216   -2.1515   52.3736 H       1  ZINC000450219577    0.0800
     34 H34       -10.2218    1.0747   54.3480 H       1  ZINC000450219577    0.0700
     35 H35        -9.5260    0.3674   52.8702 H       1  ZINC000450219577    0.0700
     36 H36       -11.0101    1.3455   52.7752 H       1  ZINC000450219577    0.0800
     37 H37       -11.0983   -1.7587   56.7627 H       1  ZINC000450219577    0.4100
     38 H38       -11.6003   -0.8543   58.6965 H       1  ZINC000450219577    0.1700
     39 H39        -8.4231   -1.0926   63.0941 H       1  ZINC000450219577    0.1300
     40 H40        -8.5838    1.4391   63.0800 H       1  ZINC000450219577    0.1000
     41 H41        -9.7573    1.3566   61.6595 H       1  ZINC000450219577    0.1100
     42 H42       -11.3658   -0.0086   63.0677 H       1  ZINC000450219577    0.1000
     43 H43       -10.1924    0.0739   64.4881 H       1  ZINC000450219577    0.1100
     44 H44        -9.3554   -4.3110   59.9165 H       1  ZINC000450219577    0.1800
     45 H45       -13.2341   -4.3564   53.5904 H       1  ZINC000450219577    0.1200
     46 H46       -15.6721   -4.1125   53.3462 H       1  ZINC000450219577    0.1200
     47 H47       -16.9662   -2.9040   55.0574 H       1  ZINC000450219577    0.1300
     48 H48       -15.8223   -1.9401   57.0133 H       1  ZINC000450219577    0.1300
     49 H49       -13.3848   -2.1879   57.2598 H       1  ZINC000450219577    0.1300
@<TRIPOS>BOND
     1     1     2    1
     2     1    28    1
     3     1    29    1
     4     1    30    1
     5     2     3    1
     6     2     4    1
     7     2     5    1
     8     3    31    1
     9     3    32    1
    10     3    33    1
    11     4    34    1
    12     4    35    1
    13     4    36    1
    14     5     6    1
    15     6     7    2
    16     6     8    1
    17     8     9    1
    18     8    10    1
    19     8    22    1
    20    10    11   am
    21    10    37    1
    22    11    12    2
    23    11    13    1
    24    13    21   ar
    25    13    14   ar
    26    14    15   ar
    27    14    38    1
    28    15    16   ar
    29    16    17    1
    30    16    20   ar
    31    17    19    1
    32    17    18    1
    33    17    39    1
    34    18    19    1
    35    18    40    1
    36    18    41    1
    37    19    42    1
    38    19    43    1
    39    20    21   ar
    40    21    44    1
    41    22    27   ar
    42    22    23   ar
    43    23    24   ar
    44    23    45    1
    45    24    25   ar
    46    24    46    1
    47    25    26   ar
    48    25    47    1
    49    26    27   ar
    50    26    48    1
    51    27    49    1
@<TRIPOS>SUBSTRUCTURE
     1 ZINC000450219577        1 TEMP              0 ****  ****    0 ROOT


##########                                Name:    ZINC000518242403
##########                DOCK_Rotatable_Bonds:                   6
##########                         Heavy_Atoms:                  27
##########                    Molecular_Weight:             370.405
##########                DOCK_Rotatable_Bonds:                   6
##########                       Formal_Charge:          -0.0200004
##########                     HBond_Acceptors:                   7
##########                        HBond_Donors:                   1
##########                         Heavy_Atoms:                  27
##########                          Grid_Score:          -31.350172
##########                     Grid_vdw_energy:          -31.078203
##########                      Grid_es_energy:           -0.271968
##########           Internal_energy_repulsive:           13.623712

@<TRIPOS>MOLECULE
ZINC000518242403
 49 52 1 0 0
SMALL
USER_CHARGES


@<TRIPOS>ATOM
      1 C1        -15.2925   -3.4983   59.7012 C.3     1  ZINC000518242403   -0.1800
      2 C2        -14.5817   -2.1625   59.4749 C.3     1  ZINC000518242403    0.1000
      3 N3        -13.1413   -2.3927   59.3395 N.am    1  ZINC000518242403   -0.6200
      4 C4        -12.2811   -2.3703   60.5252 C.3     1  ZINC000518242403    0.1500
      5 C5        -11.6448   -0.9862   60.6676 C.3     1  ZINC000518242403    0.0300
      6 H6        -10.8360   -0.8775   59.9450 H       1  ZINC000518242403    0.0900
      7 C7        -12.7040    0.0977   60.4255 C.3     1  ZINC000518242403    0.0300
      8 O8        -12.0797    1.3769   60.5796 O.3     1  ZINC000518242403   -0.3000
      9 C9        -11.2821    1.5406   61.6701 C.ar    1  ZINC000518242403    0.0500
     10 C10       -10.9438    2.8214   62.0799 C.ar    1  ZINC000518242403   -0.1100
     11 C11       -10.1319    3.0036   63.1838 C.ar    1  ZINC000518242403   -0.1200
     12 C12        -9.6552    1.9102   63.8821 C.ar    1  ZINC000518242403   -0.1200
     13 C13        -9.9900    0.6306   63.4798 C.ar    1  ZINC000518242403   -0.1100
     14 C14       -10.8049    0.4408   62.3740 C.ar    1  ZINC000518242403    0.0500
     15 O15       -11.1318   -0.8248   61.9945 O.3     1  ZINC000518242403   -0.3000
     16 C16       -12.6074   -2.6252   58.1240 C.2     1  ZINC000518242403    0.7100
     17 O17       -11.4120   -2.8178   58.0117 O.2     1  ZINC000518242403   -0.5700
     18 N18       -13.3983   -2.6442   57.0330 N.am    1  ZINC000518242403   -0.6800
     19 C19       -12.8432   -2.8859   55.7692 C.ar    1  ZINC000518242403    0.1700
     20 C20       -12.0476   -1.9225   55.1649 C.ar    1  ZINC000518242403   -0.1000
     21 C21       -11.4988   -2.1621   53.9159 C.ar    1  ZINC000518242403    0.0500
     22 C22       -11.7469   -3.3702   53.2689 C.ar    1  ZINC000518242403    0.0200
     23 C23       -12.5423   -4.3289   53.8753 C.ar    1  ZINC000518242403   -0.0800
     24 C24       -13.0845   -4.0914   55.1239 C.ar    1  ZINC000518242403   -0.1000
     25 C25       -13.9492   -5.1365   55.7804 C.3     1  ZINC000518242403   -0.1100
     26 O26       -11.1002   -3.3612   52.0657 O.3     1  ZINC000518242403   -0.3100
     27 C27       -10.7917   -1.9790   51.8057 C.3     1  ZINC000518242403    0.2100
     28 O28       -10.6971   -1.3968   53.1191 O.3     1  ZINC000518242403   -0.3100
     29 H29       -15.1079   -4.1565   58.8521 H       1  ZINC000518242403    0.0600
     30 H30       -14.9118   -3.9630   60.6106 H       1  ZINC000518242403    0.0600
     31 H31       -16.3643   -3.3271   59.8018 H       1  ZINC000518242403    0.0700
     32 H32       -14.9625   -1.6979   58.5653 H       1  ZINC000518242403    0.1000
     33 H33       -14.7663   -1.5043   60.3238 H       1  ZINC000518242403    0.0700
     34 H34       -12.8776   -2.5888   61.4110 H       1  ZINC000518242403    0.1100
     35 H35       -11.4980   -3.1212   60.4202 H       1  ZINC000518242403    0.0900
     36 H36       -13.1031    0.0026   59.4156 H       1  ZINC000518242403    0.1300
     37 H37       -13.5103   -0.0077   61.1514 H       1  ZINC000518242403    0.0800
     38 H38       -11.3148    3.6774   61.5359 H       1  ZINC000518242403    0.1300
     39 H39        -9.8698    4.0019   63.5014 H       1  ZINC000518242403    0.1300
     40 H40        -9.0201    2.0556   64.7432 H       1  ZINC000518242403    0.1300
     41 H41        -9.6162   -0.2221   64.0270 H       1  ZINC000518242403    0.1300
     42 H42       -14.3519   -2.4905   57.1225 H       1  ZINC000518242403    0.4100
     43 H43       -11.8566   -0.9863   55.6682 H       1  ZINC000518242403    0.1500
     44 H44       -12.7347   -5.2657   53.3735 H       1  ZINC000518242403    0.1400
     45 H45       -13.3254   -5.8008   56.3785 H       1  ZINC000518242403    0.0800
     46 H46       -14.6824   -4.6498   56.4236 H       1  ZINC000518242403    0.0700
     47 H47       -14.4652   -5.7148   55.0140 H       1  ZINC000518242403    0.0800
     48 H48        -9.8417   -1.8912   51.2785 H       1  ZINC000518242403    0.1300
     49 H49       -11.5924   -1.5087   51.2350 H       1  ZINC000518242403    0.0900
@<TRIPOS>BOND
     1     1     2    1
     2     1    29    1
     3     1    30    1
     4     1    31    1
     5     2     3    1
     6     2    32    1
     7     2    33    1
     8     3     4    1
     9     3    16   am
    10     4     5    1
    11     4    34    1
    12     4    35    1
    13     5     6    1
    14     5    15    1
    15     5     7    1
    16     7     8    1
    17     7    36    1
    18     7    37    1
    19     8     9    1
    20     9    14   ar
    21     9    10   ar
    22    10    11   ar
    23    10    38    1
    24    11    12   ar
    25    11    39    1
    26    12    13   ar
    27    12    40    1
    28    13    14   ar
    29    13    41    1
    30    14    15    1
    31    16    17    2
    32    16    18   am
    33    18    19    1
    34    18    42    1
    35    19    24   ar
    36    19    20   ar
    37    20    21   ar
    38    20    43    1
    39    21    28    1
    40    21    22   ar
    41    22    23   ar
    42    22    26    1
    43    23    24   ar
    44    23    44    1
    45    24    25    1
    46    25    45    1
    47    25    46    1
    48    25    47    1
    49    26    27    1
    50    27    28    1
    51    27    48    1
    52    27    49    1
@<TRIPOS>SUBSTRUCTURE
     1 ZINC000518242403        1 TEMP              0 ****  ****    0 ROOT


##########                                Name:    ZINC000469459940
##########                DOCK_Rotatable_Bonds:                   7
##########                         Heavy_Atoms:                  24
##########                    Molecular_Weight:             414.295
##########                DOCK_Rotatable_Bonds:                   7
##########                       Formal_Charge:          -0.0200002
##########                     HBond_Acceptors:                   6
##########                        HBond_Donors:                   1
##########                         Heavy_Atoms:                  24
##########                          Grid_Score:          -31.336302
##########                     Grid_vdw_energy:          -31.233736
##########                      Grid_es_energy:           -0.102566
##########           Internal_energy_repulsive:           11.651104

@<TRIPOS>MOLECULE
ZINC000469459940
 41 42 1 0 0
SMALL
USER_CHARGES


@<TRIPOS>ATOM
      1 C1        -10.4287   -1.5104   52.1433 C.3     1  ZINC000469459940   -0.1600
      2 C2        -11.6106   -2.4585   52.3553 C.3     1  ZINC000469459940   -0.1200
      3 C3        -12.5906   -1.8369   53.3523 C.3     1  ZINC000469459940   -0.1200
      4 C4        -13.8920   -2.6414   53.3575 C.3     1  ZINC000469459940   -0.6000
      5 S5        -13.6784   -4.1303   54.3715 S.o2    1  ZINC000469459940    2.4900
      6 O6        -14.9396   -4.7031   54.6882 O.2     1  ZINC000469459940   -0.9300
      7 O7        -12.6169   -4.9291   53.8672 O.2     1  ZINC000469459940   -0.9300
      8 C8        -13.0747   -3.5289   55.9139 C.ar    1  ZINC000469459940   -0.6400
      9 C9        -11.7115   -3.4607   56.1405 C.ar    1  ZINC000469459940   -0.0300
     10 C10       -11.2322   -2.9913   57.3459 C.ar    1  ZINC000469459940   -0.0800
     11 C11       -12.1260   -2.5843   58.3380 C.ar    1  ZINC000469459940   -0.0900
     12 C12       -11.6196   -2.0798   59.6318 C.2     1  ZINC000469459940    0.5600
     13 O13       -12.0977   -2.4879   60.6723 O.2     1  ZINC000469459940   -0.5000
     14 N14       -10.6281   -1.1673   59.6578 N.am    1  ZINC000469459940   -0.6700
     15 C15       -10.1489   -0.6899   60.8822 C.ar    1  ZINC000469459940    0.1900
     16 C16        -9.1944   -1.4134   61.5851 C.ar    1  ZINC000469459940   -0.1500
     17 C17        -8.7222   -0.9408   62.7943 C.ar    1  ZINC000469459940   -0.0400
     18 C18        -9.1989    0.2522   63.3063 C.ar    1  ZINC000469459940   -0.1500
     19 Br19       -8.5497    0.8956   64.9617 Br      1  ZINC000469459940   -0.0200
     20 C20       -10.1516    0.9772   62.6077 C.ar    1  ZINC000469459940    0.1500
     21 F21       -10.6159    2.1423   63.1098 F       1  ZINC000469459940   -0.1200
     22 C22       -10.6228    0.5110   61.3939 C.ar    1  ZINC000469459940   -0.1500
     23 C23       -13.5001   -2.6553   58.1026 C.ar    1  ZINC000469459940   -0.1100
     24 C24       -13.9660   -3.1219   56.8908 C.ar    1  ZINC000469459940   -0.0300
     25 H25       -10.7912   -0.5597   51.7519 H       1  ZINC000469459940    0.0600
     26 H26        -9.9225   -1.3425   53.0939 H       1  ZINC000469459940    0.0600
     27 H27        -9.7305   -1.9532   51.4330 H       1  ZINC000469459940    0.0600
     28 H28       -12.1169   -2.6263   51.4048 H       1  ZINC000469459940    0.0700
     29 H29       -11.2481   -3.4090   52.7467 H       1  ZINC000469459940    0.0700
     30 H30       -12.1514   -1.8500   54.3499 H       1  ZINC000469459940    0.0800
     31 H31       -12.8009   -0.8077   53.0616 H       1  ZINC000469459940    0.0800
     32 H32       -14.6946   -2.0315   53.7721 H       1  ZINC000469459940    0.1400
     33 H33       -14.1448   -2.9300   52.3373 H       1  ZINC000469459940    0.1400
     34 H34       -11.0211   -3.7759   55.3721 H       1  ZINC000469459940    0.1500
     35 H35       -10.1680   -2.9392   57.5218 H       1  ZINC000469459940    0.1500
     36 H36       -10.2467   -0.8416   58.8275 H       1  ZINC000469459940    0.4200
     37 H37        -8.8217   -2.3455   61.1869 H       1  ZINC000469459940    0.1500
     38 H38        -7.9799   -1.5037   63.3406 H       1  ZINC000469459940    0.1500
     39 H39       -11.3650    1.0756   60.8491 H       1  ZINC000469459940    0.1600
     40 H40       -14.1968   -2.3423   58.8661 H       1  ZINC000469459940    0.1400
     41 H41       -15.0288   -3.1773   56.7074 H       1  ZINC000469459940    0.1500
@<TRIPOS>BOND
     1     1     2    1
     2     1    25    1
     3     1    26    1
     4     1    27    1
     5     2     3    1
     6     2    28    1
     7     2    29    1
     8     3     4    1
     9     3    30    1
    10     3    31    1
    11     4     5    1
    12     4    32    1
    13     4    33    1
    14     5     6    2
    15     5     7    2
    16     5     8    1
    17     8    24   ar
    18     8     9   ar
    19     9    10   ar
    20     9    34    1
    21    10    11   ar
    22    10    35    1
    23    11    12    1
    24    11    23   ar
    25    12    13    2
    26    12    14   am
    27    14    15    1
    28    14    36    1
    29    15    22   ar
    30    15    16   ar
    31    16    17   ar
    32    16    37    1
    33    17    18   ar
    34    17    38    1
    35    18    19    1
    36    18    20   ar
    37    20    21    1
    38    20    22   ar
    39    22    39    1
    40    23    24   ar
    41    23    40    1
    42    24    41    1
@<TRIPOS>SUBSTRUCTURE
     1 ZINC000469459940        1 TEMP              0 ****  ****    0 ROOT


##########                                Name:    ZINC000763800048
##########                DOCK_Rotatable_Bonds:                   8
##########                         Heavy_Atoms:                  23
##########                    Molecular_Weight:             329.783
##########                DOCK_Rotatable_Bonds:                   8
##########                       Formal_Charge:           0.0199994
##########                     HBond_Acceptors:                   5
##########                        HBond_Donors:                   1
##########                         Heavy_Atoms:                  23
##########                          Grid_Score:          -31.335640
##########                     Grid_vdw_energy:          -31.006985
##########                      Grid_es_energy:           -0.328655
##########           Internal_energy_repulsive:            9.865060

@<TRIPOS>MOLECULE
ZINC000763800048
 39 40 1 0 0
SMALL
USER_CHARGES


@<TRIPOS>ATOM
      1 C1        -11.4835   -2.3441   51.8076 C.3     1  ZINC000763800048    0.0400
      2 O2        -12.9079   -2.3484   52.0892 O.3     1  ZINC000763800048   -0.3600
      3 C3        -13.3301   -3.1450   53.0836 C.2     1  ZINC000763800048    0.4600
      4 O4        -14.5031   -3.1833   53.3705 O.2     1  ZINC000763800048   -0.4900
      5 C5        -12.3408   -3.9915   53.8424 C.3     1  ZINC000763800048   -0.0700
      6 C6        -12.8630   -4.2502   55.2322 C.ar    1  ZINC000763800048   -0.0600
      7 C7        -13.6052   -5.3879   55.4904 C.ar    1  ZINC000763800048   -0.1200
      8 C8        -14.0863   -5.6291   56.7644 C.ar    1  ZINC000763800048   -0.1000
      9 C9        -13.8262   -4.7341   57.7833 C.ar    1  ZINC000763800048   -0.1100
     10 C10       -13.0804   -3.5903   57.5274 C.ar    1  ZINC000763800048    0.1500
     11 N11       -12.8151   -2.6820   58.5567 N.am    1  ZINC000763800048   -0.6700
     12 C12       -11.6462   -2.7432   59.2248 C.2     1  ZINC000763800048    0.5500
     13 O13       -10.8215   -3.5891   58.9321 O.2     1  ZINC000763800048   -0.5200
     14 C14       -11.3686   -1.7925   60.3022 C.2     1  ZINC000763800048   -0.2100
     15 C15       -10.0991   -1.5841   60.7072 C.2     1  ZINC000763800048   -0.0100
     16 C16        -9.8198   -0.6269   61.7894 C.ar    1  ZINC000763800048   -0.0800
     17 C17        -8.8676   -0.9308   62.7678 C.ar    1  ZINC000763800048   -0.0900
     18 C18        -8.6112   -0.0294   63.7786 C.ar    1  ZINC000763800048   -0.1100
     19 C19        -9.2944    1.1749   63.8272 C.ar    1  ZINC000763800048   -0.0200
     20 Cl20       -8.9653    2.3037   65.1043 Cl      1  ZINC000763800048   -0.0600
     21 C21       -10.2387    1.4828   62.8612 C.ar    1  ZINC000763800048   -0.1100
     22 C22       -10.5012    0.5935   61.8413 C.ar    1  ZINC000763800048   -0.0800
     23 C23       -12.5947   -3.3535   56.2480 C.ar    1  ZINC000763800048   -0.1300
     24 H24       -11.2779   -1.6600   50.9843 H       1  ZINC000763800048    0.1000
     25 H25       -10.9388   -2.0194   52.6941 H       1  ZINC000763800048    0.0600
     26 H26       -11.1643   -3.3494   51.5329 H       1  ZINC000763800048    0.0600
     27 H27       -12.2017   -4.9403   53.3242 H       1  ZINC000763800048    0.1200
     28 H28       -11.3868   -3.4680   53.9044 H       1  ZINC000763800048    0.1200
     29 H29       -13.8101   -6.0895   54.6954 H       1  ZINC000763800048    0.1200
     30 H30       -14.6663   -6.5183   56.9627 H       1  ZINC000763800048    0.1300
     31 H31       -14.2023   -4.9229   58.7779 H       1  ZINC000763800048    0.1400
     32 H32       -13.4724   -2.0079   58.7901 H       1  ZINC000763800048    0.4100
     33 H33       -12.1802   -1.2578   60.7731 H       1  ZINC000763800048    0.1300
     34 H34        -9.2875   -2.1198   60.2372 H       1  ZINC000763800048    0.1400
     35 H35        -8.3347   -1.8695   62.7316 H       1  ZINC000763800048    0.1400
     36 H36        -7.8761   -0.2628   64.5347 H       1  ZINC000763800048    0.1400
     37 H37       -10.7675    2.4234   62.9053 H       1  ZINC000763800048    0.1400
     38 H38       -11.2373    0.8349   61.0888 H       1  ZINC000763800048    0.1400
     39 H39       -12.0142   -2.4655   56.0458 H       1  ZINC000763800048    0.1300
@<TRIPOS>BOND
     1     1     2    1
     2     1    24    1
     3     1    25    1
     4     1    26    1
     5     2     3    1
     6     3     4    2
     7     3     5    1
     8     5     6    1
     9     5    27    1
    10     5    28    1
    11     6    23   ar
    12     6     7   ar
    13     7     8   ar
    14     7    29    1
    15     8     9   ar
    16     8    30    1
    17     9    10   ar
    18     9    31    1
    19    10    11    1
    20    10    23   ar
    21    11    12   am
    22    11    32    1
    23    12    13    2
    24    12    14    1
    25    14    15    2
    26    14    33    1
    27    15    16    1
    28    15    34    1
    29    16    22   ar
    30    16    17   ar
    31    17    18   ar
    32    17    35    1
    33    18    19   ar
    34    18    36    1
    35    19    20    1
    36    19    21   ar
    37    21    22   ar
    38    21    37    1
    39    22    38    1
    40    23    39    1
@<TRIPOS>SUBSTRUCTURE
     1 ZINC000763800048        1 TEMP              0 ****  ****    0 ROOT


##########                                Name:    ZINC000417533280
##########                DOCK_Rotatable_Bonds:                   9
##########                         Heavy_Atoms:                  26
##########                    Molecular_Weight:             367.439
##########                DOCK_Rotatable_Bonds:                   9
##########                       Formal_Charge:         -0.00999999
##########                     HBond_Acceptors:                   7
##########                        HBond_Donors:                   2
##########                         Heavy_Atoms:                  26
##########                          Grid_Score:          -31.303488
##########                     Grid_vdw_energy:          -31.590912
##########                      Grid_es_energy:            0.287424
##########           Internal_energy_repulsive:           18.102079

@<TRIPOS>MOLECULE
ZINC000417533280
 53 54 1 0 0
SMALL
USER_CHARGES


@<TRIPOS>ATOM
      1 C1        -17.2135   -0.7931   46.8153 C.3     1  ZINC000417533280   -0.1600
      2 C2        -16.2889   -1.4850   47.8189 C.3     1  ZINC000417533280   -0.1200
      3 C3        -14.9561   -0.7366   47.8846 C.3     1  ZINC000417533280   -0.1200
      4 C4        -14.0313   -1.4290   48.8878 C.3     1  ZINC000417533280   -0.1300
      5 C5        -14.6861   -1.4269   50.2706 C.3     1  ZINC000417533280    0.1200
      6 N6        -13.8132   -2.1145   51.2252 N.am    1  ZINC000417533280   -0.7300
      7 C7        -14.3472   -2.7783   52.2695 C.2     1  ZINC000417533280    0.5200
      8 O8        -15.5505   -2.8078   52.4181 O.2     1  ZINC000417533280   -0.5400
      9 C9        -13.4490   -3.4841   53.2526 C.3     1  ZINC000417533280   -0.1100
     10 C10       -12.2263   -2.6110   53.5439 C.3     1  ZINC000417533280   -0.1300
     11 C11       -11.2989   -3.3462   54.5166 C.3     1  ZINC000417533280    0.1300
     12 N12       -12.0687   -3.7240   55.7097 N.am    1  ZINC000417533280   -0.6200
     13 C13       -11.6428   -3.3761   56.9402 C.2     1  ZINC000417533280    0.7100
     14 O14       -12.2889   -3.6948   57.9197 O.2     1  ZINC000417533280   -0.5600
     15 N15       -10.5009   -2.6750   57.0849 N.am    1  ZINC000417533280   -0.6800
     16 C16       -10.0584   -2.3135   58.3636 C.ar    1  ZINC000417533280    0.1900
     17 C17        -9.4207   -3.2480   59.1682 C.ar    1  ZINC000417533280   -0.1100
     18 C18        -8.9839   -2.8904   60.4294 C.ar    1  ZINC000417533280   -0.1100
     19 C19        -9.1817   -1.6013   60.8920 C.ar    1  ZINC000417533280    0.0500
     20 F20        -8.7535   -1.2538   62.1253 F       1  ZINC000417533280   -0.1300
     21 C21        -9.8185   -0.6653   60.0905 C.ar    1  ZINC000417533280    0.0900
     22 F22       -10.0107    0.5928   60.5435 F       1  ZINC000417533280   -0.1200
     23 C23       -10.2520   -1.0186   58.8257 C.ar    1  ZINC000417533280   -0.1300
     24 C24       -10.9435   -0.0022   57.9541 C.3     1  ZINC000417533280   -0.1200
     25 C25       -13.3117   -4.4878   55.5359 C.3     1  ZINC000417533280    0.1100
     26 C26       -14.2165   -3.7397   54.5517 C.3     1  ZINC000417533280   -0.1200
     27 H27       -17.3893    0.2350   47.1322 H       1  ZINC000417533280    0.0500
     28 H28       -16.7469   -0.7948   45.8302 H       1  ZINC000417533280    0.0500
     29 H29       -18.1630   -1.3263   46.7684 H       1  ZINC000417533280    0.0500
     30 H30       -16.7556   -1.4833   48.8039 H       1  ZINC000417533280    0.0600
     31 H31       -16.1131   -2.5131   47.5020 H       1  ZINC000417533280    0.0600
     32 H32       -14.4897   -0.7380   46.8995 H       1  ZINC000417533280    0.0700
     33 H33       -15.1319    0.2913   48.2020 H       1  ZINC000417533280    0.0700
     34 H34       -13.8556   -2.4568   48.5704 H       1  ZINC000417533280    0.0700
     35 H35       -13.0818   -0.8957   48.9345 H       1  ZINC000417533280    0.0700
     36 H36       -14.8430   -0.3988   50.5968 H       1  ZINC000417533280    0.0700
     37 H37       -15.6454   -1.9421   50.2190 H       1  ZINC000417533280    0.0700
     38 H38       -12.8508   -2.0920   51.1058 H       1  ZINC000417533280    0.4000
     39 H39       -13.1238   -4.4346   52.8299 H       1  ZINC000417533280    0.1000
     40 H40       -11.6933   -2.4099   52.6147 H       1  ZINC000417533280    0.0800
     41 H41       -12.5490   -1.6701   53.9897 H       1  ZINC000417533280    0.0800
     42 H42       -10.9036   -4.2421   54.0379 H       1  ZINC000417533280    0.0700
     43 H43       -10.4772   -2.6904   54.8044 H       1  ZINC000417533280    0.1000
     44 H44        -9.9855   -2.4208   56.3035 H       1  ZINC000417533280    0.4100
     45 H45        -9.2662   -4.2545   58.8083 H       1  ZINC000417533280    0.1700
     46 H46        -8.4882   -3.6179   61.0549 H       1  ZINC000417533280    0.1500
     47 H47       -10.2026    0.5259   57.3538 H       1  ZINC000417533280    0.0800
     48 H48       -11.6502   -0.5083   57.2964 H       1  ZINC000417533280    0.0700
     49 H49       -11.4780    0.7110   58.5816 H       1  ZINC000417533280    0.0800
     50 H50       -13.0805   -5.4768   55.1404 H       1  ZINC000417533280    0.0800
     51 H51       -13.8180   -4.5852   56.4963 H       1  ZINC000417533280    0.0800
     52 H52       -14.5204   -2.7882   54.9881 H       1  ZINC000417533280    0.0800
     53 H53       -15.0999   -4.3421   54.3399 H       1  ZINC000417533280    0.0900
@<TRIPOS>BOND
     1     1     2    1
     2     1    27    1
     3     1    28    1
     4     1    29    1
     5     2     3    1
     6     2    30    1
     7     2    31    1
     8     3     4    1
     9     3    32    1
    10     3    33    1
    11     4     5    1
    12     4    34    1
    13     4    35    1
    14     5     6    1
    15     5    36    1
    16     5    37    1
    17     6     7   am
    18     6    38    1
    19     7     8    2
    20     7     9    1
    21     9    26    1
    22     9    10    1
    23     9    39    1
    24    10    11    1
    25    10    40    1
    26    10    41    1
    27    11    12    1
    28    11    42    1
    29    11    43    1
    30    12    13   am
    31    12    25    1
    32    13    14    2
    33    13    15   am
    34    15    16    1
    35    15    44    1
    36    16    23   ar
    37    16    17   ar
    38    17    18   ar
    39    17    45    1
    40    18    19   ar
    41    18    46    1
    42    19    20    1
    43    19    21   ar
    44    21    22    1
    45    21    23   ar
    46    23    24    1
    47    24    47    1
    48    24    48    1
    49    24    49    1
    50    25    26    1
    51    25    50    1
    52    25    51    1
    53    26    52    1
    54    26    53    1
@<TRIPOS>SUBSTRUCTURE
     1 ZINC000417533280        1 TEMP              0 ****  ****    0 ROOT


##########                                Name:    ZINC000952280524
##########                DOCK_Rotatable_Bonds:                   9
##########                         Heavy_Atoms:                  25
##########                    Molecular_Weight:             348.486
##########                DOCK_Rotatable_Bonds:                   9
##########                       Formal_Charge:          -0.0100004
##########                     HBond_Acceptors:                   5
##########                        HBond_Donors:                   1
##########                         Heavy_Atoms:                  25
##########                          Grid_Score:          -31.303165
##########                     Grid_vdw_energy:          -30.385574
##########                      Grid_es_energy:           -0.917591
##########           Internal_energy_repulsive:           21.842850

@<TRIPOS>MOLECULE
ZINC000952280524
 57 59 1 0 0
SMALL
USER_CHARGES


@<TRIPOS>ATOM
      1 C1        -12.6193    2.3594   64.3045 C.3     1  ZINC000952280524   -0.1800
      2 C2        -11.3991    2.6275   65.1876 C.3     1  ZINC000952280524    0.1400
      3 C3        -11.5471    3.9932   65.8611 C.3     1  ZINC000952280524   -0.1900
      4 O4        -11.3023    1.6113   66.1876 O.3     1  ZINC000952280524   -0.5500
      5 C5        -10.1343    2.6179   64.3266 C.3     1  ZINC000952280524   -0.1200
      6 C6         -9.8869    1.2229   63.8131 C.2     1  ZINC000952280524    0.5300
      7 O7         -9.4797    0.3631   64.5654 O.2     1  ZINC000952280524   -0.5100
      8 N8        -10.1179    0.9307   62.5178 N.am    1  ZINC000952280524   -0.6300
      9 C9        -10.6096    1.8725   61.5014 C.3     1  ZINC000952280524    0.1000
     10 C10       -10.7451    1.0894   60.1786 C.3     1  ZINC000952280524   -0.1300
     11 C11       -10.8617   -0.3822   60.6562 C.3     1  ZINC000952280524   -0.1000
     12 H12       -11.8850   -0.6183   60.9482 H       1  ZINC000952280524    0.0900
     13 C13       -10.3647   -1.3492   59.5797 C.3     1  ZINC000952280524   -0.0700
     14 C14       -10.6733   -2.7868   60.0040 C.3     1  ZINC000952280524   -0.1300
     15 C15       -10.1436   -3.7538   58.9404 C.3     1  ZINC000952280524    0.1100
     16 N16       -10.7049   -3.3758   57.6362 N.am    1  ZINC000952280524   -0.6100
     17 C17       -11.3555   -4.2822   56.8800 C.2     1  ZINC000952280524    0.5500
     18 O18       -11.4825   -5.4252   57.2754 O.2     1  ZINC000952280524   -0.5500
     19 C19       -11.9120   -3.8887   55.5763 C.2     1  ZINC000952280524   -0.2200
     20 C20       -11.0979   -3.6210   54.5593 C.2     1  ZINC000952280524   -0.0300
     21 C21       -11.6680   -3.2196   53.2233 C.3     1  ZINC000952280524   -0.1500
     22 C22       -12.0843   -1.7584   53.0432 C.3     1  ZINC000952280524   -0.1700
     23 C23       -10.8280   -2.2870   52.3482 C.3     1  ZINC000952280524   -0.1600
     24 C24       -10.5439   -1.9910   57.1723 C.3     1  ZINC000952280524    0.1000
     25 C25       -11.0691   -1.0439   58.2557 C.3     1  ZINC000952280524   -0.1300
     26 C26        -9.9135   -0.3845   61.8840 C.3     1  ZINC000952280524    0.1100
     27 H27       -12.7439    3.1801   63.5980 H       1  ZINC000952280524    0.0700
     28 H28       -12.4742    1.4279   63.7573 H       1  ZINC000952280524    0.0600
     29 H29       -13.5092    2.2794   64.9288 H       1  ZINC000952280524    0.0600
     30 H30       -12.4481    4.0001   66.4746 H       1  ZINC000952280524    0.0600
     31 H31       -10.6778    4.1843   66.4903 H       1  ZINC000952280524    0.0800
     32 H32       -11.6210    4.7684   65.0984 H       1  ZINC000952280524    0.0600
     33 H33       -10.5495    1.7179   66.7851 H       1  ZINC000952280524    0.3700
     34 H34       -10.2632    3.2976   63.4843 H       1  ZINC000952280524    0.1000
     35 H35        -9.2837    2.9403   64.9269 H       1  ZINC000952280524    0.1000
     36 H36       -11.5810    2.2664   61.8003 H       1  ZINC000952280524    0.0700
     37 H37        -9.8982    2.6890   61.3778 H       1  ZINC000952280524    0.0700
     38 H38       -11.6435    1.3928   59.6412 H       1  ZINC000952280524    0.0800
     39 H39        -9.8591    1.2244   59.5581 H       1  ZINC000952280524    0.0800
     40 H40        -9.2885   -1.2309   59.4541 H       1  ZINC000952280524    0.0800
     41 H41       -10.1905   -2.9960   60.9586 H       1  ZINC000952280524    0.0800
     42 H42       -11.7512   -2.9127   60.1057 H       1  ZINC000952280524    0.0700
     43 H43        -9.0559   -3.6939   58.9013 H       1  ZINC000952280524    0.0700
     44 H44       -10.4470   -4.7711   59.1878 H       1  ZINC000952280524    0.0900
     45 H45       -12.9815   -3.8171   55.4452 H       1  ZINC000952280524    0.1300
     46 H46       -10.0283   -3.6912   54.6909 H       1  ZINC000952280524    0.1300
     47 H47       -12.2658   -3.9793   52.7199 H       1  ZINC000952280524    0.1200
     48 H48       -12.9563   -1.5566   52.4212 H       1  ZINC000952280524    0.1000
     49 H49       -11.9459   -1.0874   53.8909 H       1  ZINC000952280524    0.1000
     50 H50        -9.8630   -1.9639   52.7387 H       1  ZINC000952280524    0.1000
     51 H51       -10.8735   -2.4331   51.2689 H       1  ZINC000952280524    0.1000
     52 H52        -9.4889   -1.7874   56.9890 H       1  ZINC000952280524    0.0700
     53 H53       -11.1114   -1.8453   56.2532 H       1  ZINC000952280524    0.0900
     54 H54       -12.1433   -1.1862   58.3739 H       1  ZINC000952280524    0.0700
     55 H55       -10.8680   -0.0125   57.9660 H       1  ZINC000952280524    0.0800
     56 H56        -8.8781   -0.5002   61.5634 H       1  ZINC000952280524    0.0700
     57 H57       -10.1889   -1.1816   62.5745 H       1  ZINC000952280524    0.0800
@<TRIPOS>BOND
     1     1     2    1
     2     1    27    1
     3     1    28    1
     4     1    29    1
     5     2     3    1
     6     2     4    1
     7     2     5    1
     8     3    30    1
     9     3    31    1
    10     3    32    1
    11     4    33    1
    12     5     6    1
    13     5    34    1
    14     5    35    1
    15     6     7    2
    16     6     8   am
    17     8    26    1
    18     8     9    1
    19     9    10    1
    20     9    36    1
    21     9    37    1
    22    10    11    1
    23    10    38    1
    24    10    39    1
    25    11    12    1
    26    11    13    1
    27    11    26    1
    28    13    25    1
    29    13    14    1
    30    13    40    1
    31    14    15    1
    32    14    41    1
    33    14    42    1
    34    15    16    1
    35    15    43    1
    36    15    44    1
    37    16    17   am
    38    16    24    1
    39    17    18    2
    40    17    19    1
    41    19    20    2
    42    19    45    1
    43    20    21    1
    44    20    46    1
    45    21    23    1
    46    21    22    1
    47    21    47    1
    48    22    23    1
    49    22    48    1
    50    22    49    1
    51    23    50    1
    52    23    51    1
    53    24    25    1
    54    24    52    1
    55    24    53    1
    56    25    54    1
    57    25    55    1
    58    26    56    1
    59    26    57    1
@<TRIPOS>SUBSTRUCTURE
     1 ZINC000952280524        1 TEMP              0 ****  ****    0 ROOT


##########                                Name:    ZINC000970996691
##########                DOCK_Rotatable_Bonds:                   7
##########                         Heavy_Atoms:                  24
##########                    Molecular_Weight:             334.462
##########                DOCK_Rotatable_Bonds:                   7
##########                       Formal_Charge:          -0.0199999
##########                     HBond_Acceptors:                   6
##########                        HBond_Donors:                   0
##########                         Heavy_Atoms:                  24
##########                          Grid_Score:          -31.293995
##########                     Grid_vdw_energy:          -31.436043
##########                      Grid_es_energy:            0.142047
##########           Internal_energy_repulsive:           11.675194

@<TRIPOS>MOLECULE
ZINC000970996691
 54 56 1 0 0
SMALL
USER_CHARGES


@<TRIPOS>ATOM
      1 C1         -1.8193    2.9497   50.9652 C.3     1  ZINC000970996691   -0.1500
      2 C2         -3.2641    2.6361   51.3586 C.3     1  ZINC000970996691   -0.1200
      3 C3         -3.8895    1.7140   50.3099 C.3     1  ZINC000970996691   -0.0300
      4 C4         -5.3076    1.3924   50.7057 C.2     1  ZINC000970996691    0.1800
      5 N5         -6.1198    2.1593   51.3925 N.2     1  ZINC000970996691   -0.4700
      6 C6         -7.2666    1.4653   51.5025 C.2     1  ZINC000970996691    0.1800
      7 C7         -8.5190    1.9180   52.2080 C.3     1  ZINC000970996691    0.1500
      8 N8         -8.5019    1.4338   53.5947 N.3     1  ZINC000970996691   -0.5200
      9 C9         -8.2622    2.5370   54.5346 C.3     1  ZINC000970996691    0.0200
     10 C10        -9.7473    0.7259   53.9205 C.3     1  ZINC000970996691    0.0700
     11 H11       -10.6062    1.3917   53.8361 H       1  ZINC000970996691    0.0600
     12 C12        -9.9252   -0.5277   53.0239 C.3     1  ZINC000970996691   -0.1300
     13 C13       -10.8005   -1.4538   53.8944 C.3     1  ZINC000970996691    0.1000
     14 N14       -10.6279   -1.0309   55.2918 N.am    1  ZINC000970996691   -0.6200
     15 C15       -11.2407   -1.5788   56.3598 C.2     1  ZINC000970996691    0.5300
     16 O16       -12.0109   -2.5034   56.2089 O.2     1  ZINC000970996691   -0.5300
     17 C17       -10.9690   -1.0423   57.7417 C.3     1  ZINC000970996691   -0.1000
     18 C18       -12.0681   -1.5123   58.6965 C.3     1  ZINC000970996691   -0.1100
     19 C19       -11.7921   -0.9677   60.0995 C.3     1  ZINC000970996691   -0.1200
     20 C20       -10.4371   -1.4824   60.5888 C.3     1  ZINC000970996691   -0.1200
     21 C21        -9.3378   -1.0124   59.6340 C.3     1  ZINC000970996691   -0.1200
     22 C22        -9.6138   -1.5571   58.2311 C.3     1  ZINC000970996691   -0.1000
     23 C23        -9.6727    0.0920   55.3320 C.3     1  ZINC000970996691    0.1200
     24 N24        -7.0965    0.3328   50.8883 N.2     1  ZINC000970996691   -0.3800
     25 O25        -5.9798    0.2735   50.4185 O.3     1  ZINC000970996691    0.0800
     26 H26        -1.2484    2.0228   50.9096 H       1  ZINC000970996691    0.0600
     27 H27        -1.8062    3.4432   49.9933 H       1  ZINC000970996691    0.0600
     28 H28        -1.3736    3.6066   51.7122 H       1  ZINC000970996691    0.0600
     29 H29        -3.2772    2.1426   52.3304 H       1  ZINC000970996691    0.0700
     30 H30        -3.8350    3.5630   51.4141 H       1  ZINC000970996691    0.0700
     31 H31        -3.8869    2.2121   49.3404 H       1  ZINC000970996691    0.1100
     32 H32        -3.3120    0.7919   50.2463 H       1  ZINC000970996691    0.1000
     33 H33        -8.5649    3.0070   52.2037 H       1  ZINC000970996691    0.0700
     34 H34        -9.3915    1.5156   51.6932 H       1  ZINC000970996691    0.1100
     35 H35        -9.0540    3.2792   54.4332 H       1  ZINC000970996691    0.0300
     36 H36        -8.2546    2.1508   55.5538 H       1  ZINC000970996691    0.0800
     37 H37        -7.3001    2.9997   54.3141 H       1  ZINC000970996691    0.0700
     38 H38       -10.4391   -0.2699   52.0979 H       1  ZINC000970996691    0.0800
     39 H39        -8.9615   -0.9924   52.8149 H       1  ZINC000970996691    0.0900
     40 H40       -11.8465   -1.3560   53.6039 H       1  ZINC000970996691    0.0700
     41 H41       -10.4763   -2.4880   53.7774 H       1  ZINC000970996691    0.0700
     42 H42       -10.9547    0.0472   57.7121 H       1  ZINC000970996691    0.0900
     43 H43       -13.0336   -1.1456   58.3478 H       1  ZINC000970996691    0.0700
     44 H44       -12.0824   -2.6018   58.7261 H       1  ZINC000970996691    0.0700
     45 H45       -11.7779    0.1218   60.0699 H       1  ZINC000970996691    0.0600
     46 H46       -12.5753   -1.3025   60.7797 H       1  ZINC000970996691    0.0700
     47 H47       -10.2404   -1.0944   61.5883 H       1  ZINC000970996691    0.0600
     48 H48       -10.4513   -2.5719   60.6183 H       1  ZINC000970996691    0.0600
     49 H49        -9.3235    0.0771   59.6045 H       1  ZINC000970996691    0.0600
     50 H50        -8.3724   -1.3791   59.9827 H       1  ZINC000970996691    0.0700
     51 H51        -9.6280   -2.6466   58.2606 H       1  ZINC000970996691    0.0800
     52 H52        -8.8307   -1.2222   57.5508 H       1  ZINC000970996691    0.0600
     53 H53        -8.6652   -0.2739   55.5300 H       1  ZINC000970996691    0.0800
     54 H54        -9.9702    0.8162   56.0904 H       1  ZINC000970996691    0.0800
@<TRIPOS>BOND
     1     1     2    1
     2     1    26    1
     3     1    27    1
     4     1    28    1
     5     2     3    1
     6     2    29    1
     7     2    30    1
     8     3     4    1
     9     3    31    1
    10     3    32    1
    11     4    25    1
    12     4     5    2
    13     5     6    1
    14     6     7    1
    15     6    24    2
    16     7     8    1
    17     7    33    1
    18     7    34    1
    19     8     9    1
    20     8    10    1
    21     9    35    1
    22     9    36    1
    23     9    37    1
    24    10    11    1
    25    10    23    1
    26    10    12    1
    27    12    13    1
    28    12    38    1
    29    12    39    1
    30    13    14    1
    31    13    40    1
    32    13    41    1
    33    14    15   am
    34    14    23    1
    35    15    16    2
    36    15    17    1
    37    17    22    1
    38    17    18    1
    39    17    42    1
    40    18    19    1
    41    18    43    1
    42    18    44    1
    43    19    20    1
    44    19    45    1
    45    19    46    1
    46    20    21    1
    47    20    47    1
    48    20    48    1
    49    21    22    1
    50    21    49    1
    51    21    50    1
    52    22    51    1
    53    22    52    1
    54    23    53    1
    55    23    54    1
    56    24    25    1
@<TRIPOS>SUBSTRUCTURE
     1 ZINC000970996691        1 TEMP              0 ****  ****    0 ROOT


##########                                Name:    ZINC000561219098
##########                DOCK_Rotatable_Bonds:                   4
##########                         Heavy_Atoms:                  28
##########                    Molecular_Weight:             423.273
##########                DOCK_Rotatable_Bonds:                   4
##########                       Formal_Charge:          0.00999953
##########                     HBond_Acceptors:                   9
##########                        HBond_Donors:                   1
##########                         Heavy_Atoms:                  28
##########                          Grid_Score:          -31.285875
##########                     Grid_vdw_energy:          -31.651810
##########                      Grid_es_energy:            0.365935
##########           Internal_energy_repulsive:            9.533032

@<TRIPOS>MOLECULE
ZINC000561219098
 45 48 1 0 0
SMALL
USER_CHARGES


@<TRIPOS>ATOM
      1 C1         -5.3913    1.3429   51.2078 C.3     1  ZINC000561219098    0.0700
      2 N2         -6.7391    1.5832   51.7291 N.pl3   1  ZINC000561219098   -0.4500
      3 C3         -7.1968    2.7681   52.2262 C.2     1  ZINC000561219098   -0.0100
      4 C4         -8.4775    2.6051   52.6081 C.2     1  ZINC000561219098   -0.1700
      5 C5         -8.8317    1.2595   52.3365 C.2     1  ZINC000561219098   -0.1100
      6 C6        -10.1498    0.6250   52.5934 C.2     1  ZINC000561219098    0.1600
      7 N7        -11.2279    1.2410   53.0324 N.2     1  ZINC000561219098   -0.2700
      8 N8        -12.2642    0.3062   53.1458 N.pl3   1  ZINC000561219098   -0.4700
      9 C9        -11.7772   -0.9111   52.7577 C.2     1  ZINC000561219098    0.0300
     10 C10       -12.5249   -2.1784   52.7196 C.2     1  ZINC000561219098    0.5900
     11 O11       -13.1872   -2.4646   51.7405 O.2     1  ZINC000561219098   -0.5000
     12 N12       -12.4757   -3.0216   53.7698 N.am    1  ZINC000561219098   -0.6100
     13 C13       -13.2145   -4.2941   53.7550 C.3     1  ZINC000561219098    0.0500
     14 C14       -14.0297   -4.3950   55.0493 C.3     1  ZINC000561219098    0.0500
     15 O15       -13.1666   -4.1751   56.1676 O.3     1  ZINC000561219098   -0.3700
     16 C16       -12.5710   -2.8759   56.2005 C.3     1  ZINC000561219098    0.1200
     17 H17       -13.3531   -2.1166   56.1987 H       1  ZINC000561219098    0.0900
     18 C18       -11.7366   -2.7361   57.4476 C.ar    1  ZINC000561219098   -0.0500
     19 C19       -10.9916   -3.8069   57.9037 C.ar    1  ZINC000561219098   -0.1000
     20 C20       -10.2246   -3.6788   59.0491 C.ar    1  ZINC000561219098    0.1200
     21 F21        -9.4958   -4.7253   59.4950 F       1  ZINC000561219098   -0.1200
     22 C22       -10.2046   -2.4767   59.7376 C.ar    1  ZINC000561219098   -0.0600
     23 Cl23       -9.2429   -2.3144   61.1738 Cl      1  ZINC000561219098   -0.0300
     24 C24       -10.9508   -1.4059   59.2799 C.ar    1  ZINC000561219098   -0.0700
     25 C25       -11.7125   -1.5339   58.1324 C.ar    1  ZINC000561219098   -0.0300
     26 Cl26      -12.6486   -0.1895   57.5580 Cl      1  ZINC000561219098   -0.0400
     27 C27       -11.6766   -2.6997   54.9628 C.3     1  ZINC000561219098    0.0900
     28 C28       -10.4579   -0.7298   52.4033 C.2     1  ZINC000561219098   -0.1700
     29 C29        -7.7399    0.6610   51.7906 C.2     1  ZINC000561219098    0.0300
     30 H30        -5.3705    1.5610   50.1400 H       1  ZINC000561219098    0.0800
     31 H31        -4.6813    1.9888   51.7244 H       1  ZINC000561219098    0.0900
     32 H32        -5.1191    0.3001   51.3710 H       1  ZINC000561219098    0.0900
     33 H33        -6.6277    3.6830   52.3008 H       1  ZINC000561219098    0.1700
     34 H34        -9.1169    3.3601   53.0414 H       1  ZINC000561219098    0.1400
     35 H35       -13.1678    0.4896   53.4472 H       1  ZINC000561219098    0.4400
     36 H36       -13.8849   -4.3193   52.8959 H       1  ZINC000561219098    0.1000
     37 H37       -12.5121   -5.1257   53.6977 H       1  ZINC000561219098    0.0900
     38 H38       -14.8171   -3.6413   55.0433 H       1  ZINC000561219098    0.0700
     39 H39       -14.4749   -5.3872   55.1227 H       1  ZINC000561219098    0.1200
     40 H40       -11.0079   -4.7438   57.3666 H       1  ZINC000561219098    0.1600
     41 H41       -10.9360   -0.4687   59.8164 H       1  ZINC000561219098    0.1600
     42 H42       -10.8205   -3.3710   55.0300 H       1  ZINC000561219098    0.0900
     43 H43       -11.3307   -1.6677   54.9037 H       1  ZINC000561219098    0.1100
     44 H44        -9.7817   -1.4941   52.0499 H       1  ZINC000561219098    0.1600
     45 H45        -7.6750   -0.3679   51.4687 H       1  ZINC000561219098    0.1700
@<TRIPOS>BOND
     1     1     2    1
     2     1    30    1
     3     1    31    1
     4     1    32    1
     5     2    29    1
     6     2     3    1
     7     3     4    2
     8     3    33    1
     9     4     5    1
    10     4    34    1
    11     5     6    1
    12     5    29    2
    13     6    28    1
    14     6     7    2
    15     7     8    1
    16     8     9    1
    17     8    35    1
    18     9    10    1
    19     9    28    2
    20    10    11    2
    21    10    12   am
    22    12    27    1
    23    12    13    1
    24    13    14    1
    25    13    36    1
    26    13    37    1
    27    14    15    1
    28    14    38    1
    29    14    39    1
    30    15    16    1
    31    16    17    1
    32    16    18    1
    33    16    27    1
    34    18    25   ar
    35    18    19   ar
    36    19    20   ar
    37    19    40    1
    38    20    21    1
    39    20    22   ar
    40    22    23    1
    41    22    24   ar
    42    24    25   ar
    43    24    41    1
    44    25    26    1
    45    27    42    1
    46    27    43    1
    47    28    44    1
    48    29    45    1
@<TRIPOS>SUBSTRUCTURE
     1 ZINC000561219098        1 TEMP              0 ****  ****    0 ROOT


##########                                Name:    ZINC000291036115
##########                DOCK_Rotatable_Bonds:                   5
##########                         Heavy_Atoms:                  22
##########                    Molecular_Weight:             366.193
##########                DOCK_Rotatable_Bonds:                   5
##########                       Formal_Charge:                0.01
##########                     HBond_Acceptors:                   7
##########                        HBond_Donors:                   0
##########                         Heavy_Atoms:                  22
##########                          Grid_Score:          -31.263815
##########                     Grid_vdw_energy:          -30.056950
##########                      Grid_es_energy:           -1.206866
##########           Internal_energy_repulsive:            7.139557

@<TRIPOS>MOLECULE
ZINC000291036115
 35 37 1 0 0
SMALL
USER_CHARGES


@<TRIPOS>ATOM
      1 C1         -9.8707   -0.4436   58.7295 C.3     1  <0>        -0.1500
      2 C2        -10.4140   -1.4963   59.6979 C.3     1  <0>        -0.0400
      3 H3        -11.1726   -1.0447   60.3372 H       1  <0>         0.0900
      4 C4         -9.2711   -2.0320   60.5626 C.3     1  <0>        -0.0200
      5 C5         -9.1244   -1.1711   61.7907 C.2     1  <0>         0.1900
      6 N6         -9.5607    0.0565   61.9406 N.2     1  <0>        -0.4500
      7 C7         -9.2047    0.4176   63.1863 C.2     1  <0>         0.1500
      8 C8         -9.4785    1.7465   63.8423 C.3     1  <0>         0.2300
      9 N9        -10.7667    1.6916   64.5377 N.pl3   1  <0>        -0.3900
     10 C10       -11.1189    2.3806   65.6371 C.2     1  <0>         0.2600
     11 N11       -12.3478    2.0538   65.9447 N.2     1  <0>        -0.5400
     12 C12       -12.8113    1.1629   65.0690 C.2     1  <0>         0.2000
     13 N13       -11.8813    0.9133   64.1848 N.2     1  <0>        -0.3100
     14 N14        -8.5818   -0.5899   63.7206 N.2     1  <0>        -0.3600
     15 O15        -8.5301   -1.5147   62.9373 O.3     1  <0>         0.0900
     16 C16       -11.0260   -2.6298   58.9159 C.ar    1  <0>        -0.0900
     17 C17       -10.2151   -3.5975   58.3532 C.ar    1  <0>        -0.0700
     18 C18       -10.7749   -4.6382   57.6360 C.ar    1  <0>        -0.1400
     19 C19       -12.1484   -4.7114   57.4811 C.ar    1  <0>         0.1300
     20 F20       -12.6966   -5.7283   56.7806 F       1  <0>        -0.1200
     21 C21       -12.9608   -3.7410   58.0454 C.ar    1  <0>        -0.1300
     22 Br22      -14.8375   -3.8391   57.8357 Br      1  <0>        -0.0200
     23 C23       -12.3986   -2.7041   58.7667 C.ar    1  <0>        -0.0500
     24 H24        -9.4280    0.3763   59.2951 H       1  <0>         0.0600
     25 H25        -9.1122   -0.8952   58.0901 H       1  <0>         0.0700
     26 H26       -10.6849   -0.0620   58.1134 H       1  <0>         0.0700
     27 H27        -9.4912   -3.0568   60.8614 H       1  <0>         0.1200
     28 H28        -8.3430   -2.0113   59.9915 H       1  <0>         0.1100
     29 H29        -8.6878    1.9676   64.5591 H       1  <0>         0.1300
     30 H30        -9.5089    2.5273   63.0824 H       1  <0>         0.1200
     31 H31       -10.4957    3.0811   66.1732 H       1  <0>         0.2200
     32 H32       -13.7970    0.7219   65.0845 H       1  <0>         0.2200
     33 H33        -9.1434   -3.5403   58.4736 H       1  <0>         0.1400
     34 H34       -10.1409   -5.3938   57.1963 H       1  <0>         0.1500
     35 H35       -13.0312   -1.9474   59.2068 H       1  <0>         0.1400
@<TRIPOS>BOND
     1     1     2    1
     2     1    24    1
     3     1    25    1
     4     1    26    1
     5     2     3    1
     6     2     4    1
     7     2    16    1
     8     4     5    1
     9     4    27    1
    10     4    28    1
    11     5    15    1
    12     5     6    2
    13     6     7    1
    14     7     8    1
    15     7    14    2
    16     8     9    1
    17     8    29    1
    18     8    30    1
    19     9    13    1
    20     9    10    1
    21    10    11    2
    22    10    31    1
    23    11    12    1
    24    12    13    2
    25    12    32    1
    26    14    15    1
    27    16    23   ar
    28    16    17   ar
    29    17    18   ar
    30    17    33    1
    31    18    19   ar
    32    18    34    1
    33    19    20    1
    34    19    21   ar
    35    21    22    1
    36    21    23   ar
    37    23    35    1
@<TRIPOS>SUBSTRUCTURE
     1 <0>         1 TEMP              0 ****  ****    0 ROOT


##########                                Name:    ZINC001757264545
##########                DOCK_Rotatable_Bonds:                  11
##########                         Heavy_Atoms:                  25
##########                    Molecular_Weight:             344.497
##########                DOCK_Rotatable_Bonds:                  11
##########                       Formal_Charge:          0.00999946
##########                     HBond_Acceptors:                   4
##########                        HBond_Donors:                   2
##########                         Heavy_Atoms:                  25
##########                          Grid_Score:          -31.250961
##########                     Grid_vdw_energy:          -30.571192
##########                      Grid_es_energy:           -0.679770
##########           Internal_energy_repulsive:           10.967157

@<TRIPOS>MOLECULE
ZINC001757264545
 57 57 1 0 0
SMALL
USER_CHARGES


@<TRIPOS>ATOM
      1 C1        -10.8014    1.0710   65.0209 C.1     1  ZINC001757264545   -0.2100
      2 C2        -10.3148    0.6216   64.0516 C.1     1  ZINC001757264545   -0.1900
      3 C3         -9.7046    0.0582   62.8362 C.3     1  ZINC001757264545   -0.0100
      4 C4        -10.8027   -0.2932   61.8303 C.3     1  ZINC001757264545   -0.1200
      5 C5        -10.1645   -0.7958   60.5338 C.3     1  ZINC001757264545   -0.1200
      6 C6         -9.6321   -2.2147   60.7441 C.3     1  ZINC001757264545   -0.1000
      7 C7         -9.1553   -2.7841   59.4064 C.3     1  ZINC001757264545   -0.1400
      8 C8        -10.2786   -3.5515   58.7581 C.2     1  ZINC001757264545    0.5100
      9 O9        -10.2213   -4.7605   58.6803 O.2     1  ZINC001757264545   -0.5400
     10 N10       -11.3469   -2.8944   58.2646 N.am    1  ZINC001757264545   -0.7300
     11 C11       -12.4380   -3.6403   57.6328 C.3     1  ZINC001757264545    0.1400
     12 H12       -12.6659   -4.5247   58.2278 H       1  ZINC001757264545    0.1000
     13 C13       -12.0159   -4.0673   56.2256 C.3     1  ZINC001757264545   -0.1300
     14 C14       -13.1555   -4.8463   55.5656 C.3     1  ZINC001757264545   -0.1200
     15 C15       -14.3973   -3.9570   55.4777 C.3     1  ZINC001757264545   -0.1200
     16 C16       -14.8194   -3.5299   56.8850 C.3     1  ZINC001757264545   -0.1300
     17 C17       -13.6798   -2.7509   57.5448 C.3     1  ZINC001757264545    0.1400
     18 H18       -13.4520   -1.8666   56.9498 H       1  ZINC001757264545    0.1000
     19 N19       -14.0840   -2.3420   58.8923 N.am    1  ZINC001757264545   -0.7200
     20 C20       -14.1850   -1.0331   59.1975 C.2     1  ZINC001757264545    0.6400
     21 O21       -13.9421   -0.1915   58.3539 O.2     1  ZINC001757264545   -0.5200
     22 C22       -14.5785   -0.6334   60.5151 C.1     1  ZINC001757264545   -0.2300
     23 C23       -14.9010   -0.3057   61.5953 C.1     1  ZINC001757264545   -0.0500
     24 C24       -15.3053    0.1052   62.9498 C.3     1  ZINC001757264545    0.0300
     25 C25       -14.8798   -0.9659   63.9560 C.3     1  ZINC001757264545   -0.1400
     26 C26       -14.6315    1.4327   63.3024 C.3     1  ZINC001757264545   -0.1400
     27 C27       -16.8250    0.2758   62.9986 C.3     1  ZINC001757264545   -0.1400
     28 H28       -11.2366    1.4729   65.8878 H       1  ZINC001757264545    0.2200
     29 H29        -9.1463   -0.8417   63.0937 H       1  ZINC001757264545    0.0900
     30 H30        -9.0291    0.7914   62.3955 H       1  ZINC001757264545    0.0900
     31 H31       -11.4008    0.5936   61.6207 H       1  ZINC001757264545    0.0700
     32 H32       -11.4411   -1.0721   62.2467 H       1  ZINC001757264545    0.0700
     33 H33        -9.3423   -0.1371   60.2542 H       1  ZINC001757264545    0.0700
     34 H34       -10.9113   -0.8019   59.7398 H       1  ZINC001757264545    0.0700
     35 H35       -10.4260   -2.8450   61.1450 H       1  ZINC001757264545    0.0700
     36 H36        -8.7986   -2.1897   61.4461 H       1  ZINC001757264545    0.0700
     37 H37        -8.3101   -3.4512   59.5760 H       1  ZINC001757264545    0.0900
     38 H38        -8.8484   -1.9676   58.7528 H       1  ZINC001757264545    0.0900
     39 H39       -11.3933   -1.9276   58.3279 H       1  ZINC001757264545    0.4000
     40 H40       -11.7880   -3.1830   55.6305 H       1  ZINC001757264545    0.0700
     41 H41       -11.1312   -4.7010   56.2882 H       1  ZINC001757264545    0.0800
     42 H42       -12.8547   -5.1506   54.5630 H       1  ZINC001757264545    0.0700
     43 H43       -13.3834   -5.7307   56.1607 H       1  ZINC001757264545    0.0700
     44 H44       -15.2091   -4.5119   55.0075 H       1  ZINC001757264545    0.0700
     45 H45       -14.1694   -3.0726   54.8827 H       1  ZINC001757264545    0.0700
     46 H46       -15.0473   -4.4143   57.4800 H       1  ZINC001757264545    0.0700
     47 H47       -15.7041   -2.8963   56.8223 H       1  ZINC001757264545    0.0800
     48 H48       -14.2789   -3.0132   59.5649 H       1  ZINC001757264545    0.4000
     49 H49       -13.7971   -1.0874   63.9212 H       1  ZINC001757264545    0.0600
     50 H50       -15.1792   -0.6616   64.9590 H       1  ZINC001757264545    0.0700
     51 H51       -15.3598   -1.9117   63.7047 H       1  ZINC001757264545    0.0600
     52 H52       -14.9346    2.1958   62.5856 H       1  ZINC001757264545    0.0600
     53 H53       -14.9309    1.7371   64.3053 H       1  ZINC001757264545    0.0700
     54 H54       -13.5488    1.3112   63.2676 H       1  ZINC001757264545    0.0600
     55 H55       -17.3051   -0.6700   62.7473 H       1  ZINC001757264545    0.0600
     56 H56       -17.1244    0.5801   64.0015 H       1  ZINC001757264545    0.0700
     57 H57       -17.1281    1.0388   62.2816 H       1  ZINC001757264545    0.0600
@<TRIPOS>BOND
     1     1     2    3
     2     1    28    1
     3     2     3    1
     4     3     4    1
     5     3    29    1
     6     3    30    1
     7     4     5    1
     8     4    31    1
     9     4    32    1
    10     5     6    1
    11     5    33    1
    12     5    34    1
    13     6     7    1
    14     6    35    1
    15     6    36    1
    16     7     8    1
    17     7    37    1
    18     7    38    1
    19     8     9    2
    20     8    10   am
    21    10    11    1
    22    10    39    1
    23    11    12    1
    24    11    17    1
    25    11    13    1
    26    13    14    1
    27    13    40    1
    28    13    41    1
    29    14    15    1
    30    14    42    1
    31    14    43    1
    32    15    16    1
    33    15    44    1
    34    15    45    1
    35    16    17    1
    36    16    46    1
    37    16    47    1
    38    17    18    1
    39    17    19    1
    40    19    20   am
    41    19    48    1
    42    20    21    2
    43    20    22    1
    44    22    23    3
    45    23    24    1
    46    24    25    1
    47    24    26    1
    48    24    27    1
    49    25    49    1
    50    25    50    1
    51    25    51    1
    52    26    52    1
    53    26    53    1
    54    26    54    1
    55    27    55    1
    56    27    56    1
    57    27    57    1
@<TRIPOS>SUBSTRUCTURE
     1 ZINC001757264545        1 TEMP              0 ****  ****    0 ROOT


##########                                Name:    ZINC000750807956
##########                DOCK_Rotatable_Bonds:                  11
##########                         Heavy_Atoms:                  26
##########                    Molecular_Weight:             368.473
##########                DOCK_Rotatable_Bonds:                  11
##########                       Formal_Charge:        -8.12113e-07
##########                     HBond_Acceptors:                   7
##########                        HBond_Donors:                   1
##########                         Heavy_Atoms:                  26
##########                          Grid_Score:          -31.250872
##########                     Grid_vdw_energy:          -30.335205
##########                      Grid_es_energy:           -0.915666
##########           Internal_energy_repulsive:           94.929199

@<TRIPOS>MOLECULE
ZINC000750807956
 58 59 1 0 0
SMALL
USER_CHARGES


@<TRIPOS>ATOM
      1 C1        -12.4194   -4.6527   57.2865 C.3     1  ZINC000750807956   -0.1500
      2 C2        -10.9994   -4.2854   57.7222 C.3     1  ZINC000750807956    0.0700
      3 O3        -11.0205   -3.0100   58.4158 O.3     1  ZINC000750807956   -0.3600
      4 C4         -9.9748   -2.7304   59.2094 C.2     1  ZINC000750807956    0.4800
      5 O5         -8.9159   -3.2843   59.0309 O.2     1  ZINC000750807956   -0.4900
      6 C6        -10.1212   -1.7258   60.3230 C.3     1  ZINC000750807956    0.1600
      7 H7         -9.3772   -1.9243   61.0945 H       1  ZINC000750807956    0.1000
      8 C8        -11.5258   -1.8285   60.9259 C.3     1  ZINC000750807956   -0.1300
      9 C9        -11.7157   -0.7158   61.9593 C.3     1  ZINC000750807956   -0.1200
     10 C10       -11.5821    0.6465   61.2750 C.3     1  ZINC000750807956   -0.1400
     11 C11       -10.1782    0.7772   60.6761 C.3     1  ZINC000750807956    0.1100
     12 N12        -9.9296   -0.3696   59.7914 N.am    1  ZINC000750807956   -0.6100
     13 C13        -9.5385   -0.1806   58.5156 C.2     1  ZINC000750807956    0.5100
     14 O14        -9.3365   -1.1353   57.7954 O.2     1  ZINC000750807956   -0.5000
     15 C15        -9.3521    1.2171   57.9838 C.3     1  ZINC000750807956   -0.1400
     16 C16        -8.7689    1.1516   56.5708 C.3     1  ZINC000750807956    0.2100
     17 H17        -8.0042    0.3761   56.5290 H       1  ZINC000750807956    0.1000
     18 N18        -8.1720    2.4449   56.2285 N.am    1  ZINC000750807956   -0.7000
     19 C19        -6.8658    2.6700   56.4725 C.2     1  ZINC000750807956    0.6600
     20 O20        -6.1829    1.7997   56.9752 O.2     1  ZINC000750807956   -0.5600
     21 O21        -6.3176    3.8591   56.1594 O.3     1  ZINC000750807956   -0.3700
     22 C22        -4.9187    4.0499   56.4987 C.3     1  ZINC000750807956    0.1400
     23 C23        -4.0707    3.0026   55.7739 C.3     1  ZINC000750807956   -0.1800
     24 C24        -4.4761    5.4502   56.0695 C.3     1  ZINC000750807956   -0.1400
     25 C25        -4.7351    3.8977   58.0099 C.3     1  ZINC000750807956   -0.1800
     26 C26        -9.8826    0.8241   55.5741 C.3     1  ZINC000750807956   -0.1800
     27 C27       -10.4849    1.9855   54.7810 C.3     1  ZINC000750807956   -0.1700
     28 C28        -9.5662    0.9791   54.0853 C.3     1  ZINC000750807956   -0.1800
     29 H29       -12.8053   -3.8823   56.6188 H       1  ZINC000750807956    0.0600
     30 H30       -12.4034   -5.6102   56.7659 H       1  ZINC000750807956    0.0800
     31 H31       -13.0610   -4.7272   58.1646 H       1  ZINC000750807956    0.0700
     32 H32       -10.6135   -5.0558   58.3899 H       1  ZINC000750807956    0.0700
     33 H33       -10.3578   -4.2109   56.8441 H       1  ZINC000750807956    0.0600
     34 H34       -12.2694   -1.7221   60.1360 H       1  ZINC000750807956    0.0800
     35 H35       -11.6442   -2.7982   61.4094 H       1  ZINC000750807956    0.0800
     36 H36       -12.7055   -0.8016   62.4075 H       1  ZINC000750807956    0.0800
     37 H37       -10.9563   -0.8081   62.7359 H       1  ZINC000750807956    0.0700
     38 H38       -12.3252    0.7296   60.4817 H       1  ZINC000750807956    0.0700
     39 H39       -11.7406    1.4385   62.0069 H       1  ZINC000750807956    0.0800
     40 H40       -10.1098    1.7022   60.1035 H       1  ZINC000750807956    0.0900
     41 H41        -9.4386    0.7853   61.4769 H       1  ZINC000750807956    0.0800
     42 H42       -10.3152    1.7268   57.9562 H       1  ZINC000750807956    0.1200
     43 H43        -8.6695    1.7650   58.6335 H       1  ZINC000750807956    0.1100
     44 H44        -8.7169    3.1393   55.8261 H       1  ZINC000750807956    0.4000
     45 H45        -4.2015    3.1109   54.6973 H       1  ZINC000750807956    0.0600
     46 H46        -3.0206    3.1458   56.0287 H       1  ZINC000750807956    0.0700
     47 H47        -4.3860    2.0050   56.0797 H       1  ZINC000750807956    0.0900
     48 H48        -5.0802    6.1963   56.5859 H       1  ZINC000750807956    0.0700
     49 H49        -3.4260    5.5934   56.3242 H       1  ZINC000750807956    0.0800
     50 H50        -4.6069    5.5586   54.9928 H       1  ZINC000750807956    0.0700
     51 H51        -5.0503    2.9001   58.3157 H       1  ZINC000750807956    0.0900
     52 H52        -3.6849    4.0409   58.2646 H       1  ZINC000750807956    0.0700
     53 H53        -5.3391    4.6438   58.5263 H       1  ZINC000750807956    0.0600
     54 H54       -10.5503    0.0131   55.8651 H       1  ZINC000750807956    0.1100
     55 H55       -11.5491    1.9390   54.5500 H       1  ZINC000750807956    0.0900
     56 H56       -10.0877    2.9830   54.9692 H       1  ZINC000750807956    0.0900
     57 H57        -8.5647    1.3145   53.8158 H       1  ZINC000750807956    0.1200
     58 H58       -10.0261    0.2703   53.3966 H       1  ZINC000750807956    0.0900
@<TRIPOS>BOND
     1     1     2    1
     2     1    29    1
     3     1    30    1
     4     1    31    1
     5     2     3    1
     6     2    32    1
     7     2    33    1
     8     3     4    1
     9     4     5    2
    10     4     6    1
    11     6     7    1
    12     6    12    1
    13     6     8    1
    14     8     9    1
    15     8    34    1
    16     8    35    1
    17     9    10    1
    18     9    36    1
    19     9    37    1
    20    10    11    1
    21    10    38    1
    22    10    39    1
    23    11    12    1
    24    11    40    1
    25    11    41    1
    26    12    13   am
    27    13    14    2
    28    13    15    1
    29    15    16    1
    30    15    42    1
    31    15    43    1
    32    16    17    1
    33    16    18    1
    34    16    26    1
    35    18    19   am
    36    18    44    1
    37    19    20    2
    38    19    21    1
    39    21    22    1
    40    22    23    1
    41    22    24    1
    42    22    25    1
    43    23    45    1
    44    23    46    1
    45    23    47    1
    46    24    48    1
    47    24    49    1
    48    24    50    1
    49    25    51    1
    50    25    52    1
    51    25    53    1
    52    26    28    1
    53    26    27    1
    54    26    54    1
    55    27    28    1
    56    27    55    1
    57    27    56    1
    58    28    57    1
    59    28    58    1
@<TRIPOS>SUBSTRUCTURE
     1 ZINC000750807956        1 TEMP              0 ****  ****    0 ROOT


##########                                Name:    ZINC000550011575
##########                DOCK_Rotatable_Bonds:                   6
##########                         Heavy_Atoms:                  28
##########                    Molecular_Weight:             423.935
##########                DOCK_Rotatable_Bonds:                   6
##########                       Formal_Charge:          -0.0100002
##########                     HBond_Acceptors:                   7
##########                        HBond_Donors:                   0
##########                         Heavy_Atoms:                  28
##########                          Grid_Score:          -31.188448
##########                     Grid_vdw_energy:          -30.977385
##########                      Grid_es_energy:           -0.211063
##########           Internal_energy_repulsive:           33.262985

@<TRIPOS>MOLECULE
ZINC000550011575
 51 53 1 0 0
SMALL
USER_CHARGES


@<TRIPOS>ATOM
      1 C1         -8.9672   -0.9709   58.7005 C.3     1  ZINC000550011575   -0.1400
      2 C2        -10.4137   -1.3859   58.9767 C.3     1  ZINC000550011575   -0.6100
      3 H3        -11.0874   -0.5923   58.6535 H       1  ZINC000550011575    0.1500
      4 C4        -10.7270   -2.6504   58.2190 C.2     1  ZINC000550011575    0.5400
      5 O5        -10.6891   -3.7220   58.7857 O.2     1  ZINC000550011575   -0.5100
      6 N6        -11.0492   -2.5903   56.9118 N.am    1  ZINC000550011575   -0.6000
      7 C7        -11.0932   -1.2960   56.2269 C.3     1  ZINC000550011575    0.0600
      8 C8        -11.3555   -3.8193   56.1757 C.3     1  ZINC000550011575    0.1500
      9 C9        -12.6388   -3.6380   55.4067 C.ar    1  ZINC000550011575   -0.1500
     10 C10       -13.8551   -3.7026   56.0643 C.ar    1  ZINC000550011575    0.1400
     11 F11       -13.8925   -3.9285   57.3958 F       1  ZINC000550011575   -0.1100
     12 C12       -15.0336   -3.5352   55.3566 C.ar    1  ZINC000550011575   -0.1500
     13 C13       -14.9950   -3.3037   53.9948 C.ar    1  ZINC000550011575   -0.0700
     14 C14       -13.7802   -3.2391   53.3381 C.ar    1  ZINC000550011575   -0.1300
     15 C15       -12.6017   -3.4009   54.0443 C.ar    1  ZINC000550011575    0.0000
     16 Cl16      -11.0767   -3.3189   53.2188 Cl      1  ZINC000550011575   -0.0500
     17 S17       -10.6306   -1.6765   60.7542 S.o2    1  ZINC000550011575    2.4500
     18 O18       -11.8846   -2.3126   60.9592 O.2     1  ZINC000550011575   -0.9200
     19 O19        -9.4517   -2.2876   61.2601 O.2     1  ZINC000550011575   -0.9100
     20 C20       -10.7279    0.0152   61.4013 C.3     1  ZINC000550011575   -0.5300
     21 H21       -10.2907    0.7028   60.6773 H       1  ZINC000550011575    0.1500
     22 C22        -9.9465    0.0993   62.7110 C.3     1  ZINC000550011575   -0.1100
     23 C23       -10.2183    1.4661   63.3501 C.3     1  ZINC000550011575   -0.1100
     24 C24       -11.6657    1.4913   63.8372 C.3     1  ZINC000550011575   -0.0900
     25 C25       -12.6020    1.0656   62.7366 C.ar    1  ZINC000550011575   -0.0600
     26 C26       -13.9463    1.3863   62.8714 C.ar    1  ZINC000550011575   -0.1200
     27 C27       -14.8554    1.0195   61.9003 C.ar    1  ZINC000550011575   -0.1100
     28 C28       -14.4254    0.3263   60.7844 C.ar    1  ZINC000550011575   -0.1100
     29 C29       -13.0896    0.0087   60.6476 C.ar    1  ZINC000550011575   -0.1500
     30 C30       -12.1726    0.3800   61.6229 C.ar    1  ZINC000550011575   -0.0800
     31 H31        -8.7895    0.0228   59.1119 H       1  ZINC000550011575    0.0900
     32 H32        -8.2889   -1.6844   59.1684 H       1  ZINC000550011575    0.0900
     33 H33        -8.7928   -0.9553   57.6247 H       1  ZINC000550011575    0.0800
     34 H34       -10.1120   -1.0730   55.8079 H       1  ZINC000550011575    0.0700
     35 H35       -11.8305   -1.3342   55.4250 H       1  ZINC000550011575    0.0800
     36 H36       -11.3700   -0.5178   56.9381 H       1  ZINC000550011575    0.0700
     37 H37       -10.5441   -4.0390   55.4818 H       1  ZINC000550011575    0.1000
     38 H38       -11.4664   -4.6455   56.8781 H       1  ZINC000550011575    0.1100
     39 H39       -15.9830   -3.5859   55.8690 H       1  ZINC000550011575    0.1500
     40 H40       -15.9143   -3.1736   53.4432 H       1  ZINC000550011575    0.1500
     41 H41       -13.7511   -3.0585   52.2737 H       1  ZINC000550011575    0.1400
     42 H42       -10.2736   -0.6925   63.3849 H       1  ZINC000550011575    0.0800
     43 H43        -8.8805   -0.0064   62.5097 H       1  ZINC000550011575    0.0900
     44 H44        -9.5445    1.6175   64.1935 H       1  ZINC000550011575    0.0800
     45 H45       -10.0656    2.2534   62.6119 H       1  ZINC000550011575    0.0700
     46 H46       -11.7723    0.8118   64.6827 H       1  ZINC000550011575    0.0800
     47 H47       -11.9204    2.5023   64.1549 H       1  ZINC000550011575    0.0800
     48 H48       -14.2831    1.9271   63.7434 H       1  ZINC000550011575    0.1300
     49 H49       -15.8993    1.2728   62.0120 H       1  ZINC000550011575    0.1300
     50 H50       -15.1327    0.0339   60.0224 H       1  ZINC000550011575    0.1300
     51 H51       -12.7546   -0.5334   59.7758 H       1  ZINC000550011575    0.1700
@<TRIPOS>BOND
     1     1     2    1
     2     1    31    1
     3     1    32    1
     4     1    33    1
     5     2     3    1
     6     2     4    1
     7     2    17    1
     8     4     5    2
     9     4     6   am
    10     6     7    1
    11     6     8    1
    12     7    34    1
    13     7    35    1
    14     7    36    1
    15     8     9    1
    16     8    37    1
    17     8    38    1
    18     9    15   ar
    19     9    10   ar
    20    10    11    1
    21    10    12   ar
    22    12    13   ar
    23    12    39    1
    24    13    14   ar
    25    13    40    1
    26    14    15   ar
    27    14    41    1
    28    15    16    1
    29    17    18    2
    30    17    19    2
    31    17    20    1
    32    20    21    1
    33    20    30    1
    34    20    22    1
    35    22    23    1
    36    22    42    1
    37    22    43    1
    38    23    24    1
    39    23    44    1
    40    23    45    1
    41    24    25    1
    42    24    46    1
    43    24    47    1
    44    25    30   ar
    45    25    26   ar
    46    26    27   ar
    47    26    48    1
    48    27    28   ar
    49    27    49    1
    50    28    29   ar
    51    28    50    1
    52    29    30   ar
    53    29    51    1
@<TRIPOS>SUBSTRUCTURE
     1 ZINC000550011575        1 TEMP              0 ****  ****    0 ROOT


##########                                Name:    ZINC000842947763
##########                DOCK_Rotatable_Bonds:                   7
##########                         Heavy_Atoms:                  24
##########                    Molecular_Weight:             365.373
##########                DOCK_Rotatable_Bonds:                   7
##########                       Formal_Charge:          0.00999997
##########                     HBond_Acceptors:                   9
##########                        HBond_Donors:                   0
##########                         Heavy_Atoms:                  24
##########                          Grid_Score:          -31.154379
##########                     Grid_vdw_energy:          -30.111614
##########                      Grid_es_energy:           -1.042765
##########           Internal_energy_repulsive:           31.689598

@<TRIPOS>MOLECULE
ZINC000842947763
 42 43 1 0 0
SMALL
USER_CHARGES


@<TRIPOS>ATOM
      1 C1         -9.1166    0.8297   64.9589 C.3     1  ZINC000842947763   -0.1600
      2 C2        -10.0860    0.6576   63.7879 C.3     1  ZINC000842947763   -0.1000
      3 H3        -10.9999    0.1793   64.1401 H       1  ZINC000842947763    0.1000
      4 C4         -9.4361   -0.2147   62.7118 C.3     1  ZINC000842947763    0.0800
      5 O5        -10.4696   -0.8334   61.9010 O.3     1  ZINC000842947763   -0.3500
      6 C6        -10.0649   -1.6943   60.9465 C.2     1  ZINC000842947763    0.5200
      7 O7         -8.8862   -1.9680   60.8354 O.2     1  ZINC000842947763   -0.5100
      8 C8        -11.0519   -2.3036   60.0373 C.ar    1  ZINC000842947763   -0.1600
      9 C9        -10.6389   -2.8721   58.8282 C.ar    1  ZINC000842947763   -0.0200
     10 C10       -11.5639   -3.4387   57.9853 C.ar    1  ZINC000842947763   -0.1700
     11 C11       -12.9211   -3.4507   58.3293 C.ar    1  ZINC000842947763    0.2000
     12 C12       -13.3217   -2.8832   59.5333 C.ar    1  ZINC000842947763   -0.1500
     13 C13       -12.4072   -2.3226   60.3799 C.ar    1  ZINC000842947763   -0.0100
     14 C14       -14.8223   -3.0308   59.6561 C.3     1  ZINC000842947763   -0.0800
     15 C15       -15.2429   -3.7574   58.3681 C.3     1  ZINC000842947763    0.1100
     16 N16       -13.9996   -3.9687   57.6225 N.am    1  ZINC000842947763   -0.9400
     17 S17       -13.8946   -4.7169   56.1490 S.o2    1  ZINC000842947763    2.6100
     18 C18       -14.9240   -3.7032   55.0521 C.3     1  ZINC000842947763   -0.6700
     19 O19       -12.5235   -4.6011   55.7939 O.2     1  ZINC000842947763   -0.9300
     20 O20       -14.4921   -5.9891   56.3585 O.2     1  ZINC000842947763   -0.9400
     21 C21       -10.4224    2.0287   63.1984 C.3     1  ZINC000842947763   -0.1600
     22 C22       -11.2414    2.8320   64.2108 C.3     1  ZINC000842947763    0.4600
     23 F23       -10.3811    3.6021   65.0006 F       1  ZINC000842947763   -0.1800
     24 F24       -12.1283    3.6734   63.5305 F       1  ZINC000842947763   -0.1800
     25 F25       -11.9639    1.9551   65.0270 F       1  ZINC000842947763   -0.1800
     26 H26        -9.6264    1.3302   65.7821 H       1  ZINC000842947763    0.0700
     27 H27        -8.7677   -0.1489   65.2887 H       1  ZINC000842947763    0.0700
     28 H28        -8.2647    1.4305   64.6402 H       1  ZINC000842947763    0.0600
     29 H29        -8.7992    0.4033   62.0789 H       1  ZINC000842947763    0.0800
     30 H30        -8.8343   -0.9895   63.1867 H       1  ZINC000842947763    0.0800
     31 H31        -9.5935   -2.8652   58.5570 H       1  ZINC000842947763    0.1500
     32 H32       -11.2424   -3.8771   57.0520 H       1  ZINC000842947763    0.1500
     33 H33       -12.7333   -1.8858   61.3122 H       1  ZINC000842947763    0.1400
     34 H34       -15.0755   -3.6295   60.5310 H       1  ZINC000842947763    0.1000
     35 H35       -15.2977   -2.0516   59.7133 H       1  ZINC000842947763    0.1000
     36 H36       -15.7071   -4.7140   58.6080 H       1  ZINC000842947763    0.1000
     37 H37       -15.9290   -3.1374   57.7910 H       1  ZINC000842947763    0.0900
     38 H38       -14.5307   -2.6869   55.0215 H       1  ZINC000842947763    0.1300
     39 H39       -14.9125   -4.1276   54.0482 H       1  ZINC000842947763    0.1400
     40 H40       -15.9471   -3.6856   55.4276 H       1  ZINC000842947763    0.1300
     41 H41        -9.4998    2.5631   62.9719 H       1  ZINC000842947763    0.1200
     42 H42       -11.0012    1.8991   62.2839 H       1  ZINC000842947763    0.1100
@<TRIPOS>BOND
     1     1     2    1
     2     1    26    1
     3     1    27    1
     4     1    28    1
     5     2     3    1
     6     2     4    1
     7     2    21    1
     8     4     5    1
     9     4    29    1
    10     4    30    1
    11     5     6    1
    12     6     7    2
    13     6     8    1
    14     8    13   ar
    15     8     9   ar
    16     9    10   ar
    17     9    31    1
    18    10    11   ar
    19    10    32    1
    20    11    16    1
    21    11    12   ar
    22    12    13   ar
    23    12    14    1
    24    13    33    1
    25    14    15    1
    26    14    34    1
    27    14    35    1
    28    15    16    1
    29    15    36    1
    30    15    37    1
    31    16    17   am
    32    17    18    1
    33    17    19    2
    34    17    20    2
    35    18    38    1
    36    18    39    1
    37    18    40    1
    38    21    22    1
    39    21    41    1
    40    21    42    1
    41    22    23    1
    42    22    24    1
    43    22    25    1
@<TRIPOS>SUBSTRUCTURE
     1 ZINC000842947763        1 TEMP              0 ****  ****    0 ROOT


##########                                Name:    ZINC000486710336
##########                DOCK_Rotatable_Bonds:                   6
##########                         Heavy_Atoms:                  31
##########                    Molecular_Weight:             420.555
##########                DOCK_Rotatable_Bonds:                   6
##########                       Formal_Charge:         1.49012e-07
##########                     HBond_Acceptors:                   6
##########                        HBond_Donors:                   1
##########                         Heavy_Atoms:                  31
##########                          Grid_Score:          -31.146065
##########                     Grid_vdw_energy:          -29.519699
##########                      Grid_es_energy:           -1.626365
##########           Internal_energy_repulsive:           58.121315

@<TRIPOS>MOLECULE
ZINC000486710336
 63 67 1 0 0
SMALL
USER_CHARGES


@<TRIPOS>ATOM
      1 C1        -10.7289    1.4798   61.5099 C.3     1  ZINC000486710336    0.1000
      2 N2        -10.6656    0.4616   60.4586 N.pl3   1  ZINC000486710336   -0.3900
      3 N3        -11.1562   -0.8474   60.5470 N.2     1  ZINC000486710336   -0.2800
      4 C4        -10.9184   -1.4556   59.4131 C.2     1  ZINC000486710336    0.1000
      5 C5        -11.2837   -2.8802   59.0839 C.3     1  ZINC000486710336   -0.0100
      6 C6        -12.5501   -2.9231   58.1932 C.3     1  ZINC000486710336   -0.1200
      7 C7        -12.4207   -4.2924   57.4810 C.3     1  ZINC000486710336   -0.1200
      8 C8        -10.9109   -4.4296   57.1960 C.3     1  ZINC000486710336   -0.1200
      9 C9        -10.1879   -3.5316   58.2153 C.3     1  ZINC000486710336   -0.1100
     10 C10       -10.2686   -0.5612   58.5592 C.2     1  ZINC000486710336   -0.2600
     11 C11       -10.1259    0.6203   59.2220 C.2     1  ZINC000486710336    0.3000
     12 N12        -9.5294    1.7760   58.7259 N.am    1  ZINC000486710336   -0.6200
     13 C13        -9.6983    2.1202   57.4339 C.2     1  ZINC000486710336    0.5100
     14 O14       -10.3694    1.4215   56.7023 O.2     1  ZINC000486710336   -0.4800
     15 C15        -9.0600    3.3608   56.9022 C.2     1  ZINC000486710336    0.5300
     16 O16        -8.7942    4.2763   57.6533 O.2     1  ZINC000486710336   -0.5100
     17 N17        -8.7790    3.4641   55.5881 N.am    1  ZINC000486710336   -0.5800
     18 C18        -9.0475    2.4413   54.5612 C.3     1  ZINC000486710336    0.1000
     19 C19        -8.5211    2.9945   53.2184 C.3     1  ZINC000486710336   -0.0600
     20 H20        -9.3237    3.4708   52.6552 H       1  ZINC000486710336    0.1000
     21 C21        -7.8768    1.9011   52.4057 C.ar    1  ZINC000486710336   -0.0700
     22 C22        -8.1823    0.5776   52.6622 C.ar    1  ZINC000486710336   -0.1100
     23 C23        -7.5913   -0.4253   51.9168 C.ar    1  ZINC000486710336   -0.1200
     24 C24        -6.6950   -0.1047   50.9145 C.ar    1  ZINC000486710336   -0.1200
     25 C25        -6.3900    1.2188   50.6573 C.ar    1  ZINC000486710336   -0.1200
     26 C26        -6.9844    2.2220   51.3999 C.ar    1  ZINC000486710336   -0.1100
     27 C27        -7.4642    4.0473   53.6732 C.3     1  ZINC000486710336   -0.0800
     28 H28        -7.2770    4.8105   52.9179 H       1  ZINC000486710336    0.1100
     29 C29        -6.2002    3.2669   54.0401 C.3     1  ZINC000486710336   -0.1100
     30 C30        -5.2584    4.1287   54.8776 C.3     1  ZINC000486710336   -0.1200
     31 C31        -5.9679    4.5047   56.1828 C.3     1  ZINC000486710336   -0.1100
     32 C32        -7.1928    5.3527   55.8401 C.3     1  ZINC000486710336   -0.1400
     33 C33        -8.1584    4.6154   54.9274 C.3     1  ZINC000486710336    0.1400
     34 H34        -8.9504    5.3034   54.6313 H       1  ZINC000486710336    0.0800
     35 H35       -11.6559    2.0450   61.4130 H       1  ZINC000486710336    0.0800
     36 H36       -10.6985    0.9964   62.4863 H       1  ZINC000486710336    0.1000
     37 H37        -9.8794    2.1559   61.4126 H       1  ZINC000486710336    0.0800
     38 H38       -11.4377   -3.4543   59.9976 H       1  ZINC000486710336    0.0900
     39 H39       -13.4528   -2.8888   58.8033 H       1  ZINC000486710336    0.0700
     40 H40       -12.5408   -2.1086   57.4689 H       1  ZINC000486710336    0.0800
     41 H41       -12.7601   -5.0960   58.1346 H       1  ZINC000486710336    0.0700
     42 H42       -12.9864   -4.2928   56.5492 H       1  ZINC000486710336    0.0700
     43 H43       -10.5992   -5.4662   57.3246 H       1  ZINC000486710336    0.0600
     44 H44       -10.6904   -4.0960   56.1821 H       1  ZINC000486710336    0.0600
     45 H45        -9.6166   -2.7622   57.6957 H       1  ZINC000486710336    0.0700
     46 H46        -9.5253   -4.1323   58.8383 H       1  ZINC000486710336    0.0700
     47 H47        -9.9411   -0.7684   57.5511 H       1  ZINC000486710336    0.1700
     48 H48        -8.9923    2.3337   59.3102 H       1  ZINC000486710336    0.4200
     49 H49        -8.5258    1.5177   54.8120 H       1  ZINC000486710336    0.0900
     50 H50       -10.1197    2.2575   54.4921 H       1  ZINC000486710336    0.0800
     51 H51        -8.8826    0.3272   53.4454 H       1  ZINC000486710336    0.1200
     52 H52        -7.8296   -1.4593   52.1178 H       1  ZINC000486710336    0.1200
     53 H53        -6.2327   -0.8883   50.3325 H       1  ZINC000486710336    0.1200
     54 H54        -5.6894    1.4693   49.8744 H       1  ZINC000486710336    0.1200
     55 H55        -6.7461    3.2560   51.1990 H       1  ZINC000486710336    0.1200
     56 H56        -6.4783    2.3805   54.6102 H       1  ZINC000486710336    0.0700
     57 H57        -5.6898    2.9603   53.1271 H       1  ZINC000486710336    0.0700
     58 H58        -4.3518    3.5670   55.1029 H       1  ZINC000486710336    0.0600
     59 H59        -5.0032    5.0337   54.3262 H       1  ZINC000486710336    0.0600
     60 H60        -6.2818    3.6002   56.7036 H       1  ZINC000486710336    0.0500
     61 H61        -5.2909    5.0774   56.8167 H       1  ZINC000486710336    0.0600
     62 H62        -7.7100    5.6215   56.7610 H       1  ZINC000486710336    0.1000
     63 H63        -6.8674    6.2626   55.3358 H       1  ZINC000486710336    0.0700
@<TRIPOS>BOND
     1     1     2    1
     2     1    35    1
     3     1    36    1
     4     1    37    1
     5     2    11    1
     6     2     3    1
     7     3     4    2
     8     4     5    1
     9     4    10    1
    10     5     9    1
    11     5     6    1
    12     5    38    1
    13     6     7    1
    14     6    39    1
    15     6    40    1
    16     7     8    1
    17     7    41    1
    18     7    42    1
    19     8     9    1
    20     8    43    1
    21     8    44    1
    22     9    45    1
    23     9    46    1
    24    10    11    2
    25    10    47    1
    26    11    12    1
    27    12    13   am
    28    12    48    1
    29    13    14    2
    30    13    15    1
    31    15    16    2
    32    15    17   am
    33    17    33    1
    34    17    18    1
    35    18    19    1
    36    18    49    1
    37    18    50    1
    38    19    20    1
    39    19    21    1
    40    19    27    1
    41    21    26   ar
    42    21    22   ar
    43    22    23   ar
    44    22    51    1
    45    23    24   ar
    46    23    52    1
    47    24    25   ar
    48    24    53    1
    49    25    26   ar
    50    25    54    1
    51    26    55    1
    52    27    28    1
    53    27    33    1
    54    27    29    1
    55    29    30    1
    56    29    56    1
    57    29    57    1
    58    30    31    1
    59    30    58    1
    60    30    59    1
    61    31    32    1
    62    31    60    1
    63    31    61    1
    64    32    33    1
    65    32    62    1
    66    32    63    1
    67    33    34    1
@<TRIPOS>SUBSTRUCTURE
     1 ZINC000486710336        1 TEMP              0 ****  ****    0 ROOT


##########                                Name:    ZINC000676564986
##########                DOCK_Rotatable_Bonds:                   5
##########                         Heavy_Atoms:                  25
##########                    Molecular_Weight:             347.444
##########                DOCK_Rotatable_Bonds:                   5
##########                       Formal_Charge:          -0.0100005
##########                     HBond_Acceptors:                   6
##########                        HBond_Donors:                   1
##########                         Heavy_Atoms:                  25
##########                          Grid_Score:          -31.135065
##########                     Grid_vdw_energy:          -29.953978
##########                      Grid_es_energy:           -1.181087
##########           Internal_energy_repulsive:            5.008818

@<TRIPOS>MOLECULE
ZINC000676564986
 42 45 1 0 0
SMALL
USER_CHARGES


@<TRIPOS>ATOM
      1 C1        -10.0693    1.6028   65.8176 C.3     1  ZINC000676564986    0.0800
      2 N2         -9.7162    0.7201   64.7029 N.pl3   1  ZINC000676564986   -0.4800
      3 C3         -8.6779   -0.1625   64.6705 C.2     1  ZINC000676564986    0.2500
      4 N4         -8.6574   -0.7831   63.5268 N.2     1  ZINC000676564986   -0.4600
      5 C5         -9.6783   -0.3394   62.7547 C.ar    1  ZINC000676564986   -0.1100
      6 C6        -10.1404   -0.6362   61.4613 C.ar    1  ZINC000676564986    0.5100
      7 N7         -9.5001   -1.5825   60.6805 N.pl3   1  ZINC000676564986   -0.6900
      8 C8         -9.9440   -2.9783   60.7101 C.3     1  ZINC000676564986    0.1700
      9 C9        -10.6811   -3.2982   59.4351 C.ar    1  ZINC000676564986   -0.0800
     10 C10       -11.9829   -2.8642   59.2634 C.ar    1  ZINC000676564986   -0.1100
     11 C11       -12.6613   -3.1553   58.0965 C.ar    1  ZINC000676564986   -0.0700
     12 C12       -12.0344   -3.8856   57.0940 C.ar    1  ZINC000676564986   -0.1300
     13 S13       -12.8959   -4.2590   55.6031 S.3     1  ZINC000676564986   -0.0100
     14 C14       -12.0984   -3.2297   54.4159 C.ar    1  ZINC000676564986   -0.1000
     15 C15       -12.2649   -3.4745   53.0581 C.ar    1  ZINC000676564986   -0.1200
     16 C16       -11.6389   -2.6655   52.1307 C.ar    1  ZINC000676564986   -0.1000
     17 C17       -10.8469   -1.6126   52.5515 C.ar    1  ZINC000676564986   -0.1200
     18 C18       -10.6788   -1.3661   53.9020 C.ar    1  ZINC000676564986   -0.1000
     19 C19       -11.3061   -2.1678   54.8351 C.ar    1  ZINC000676564986   -0.1000
     20 C20       -10.7261   -4.3201   57.2701 C.ar    1  ZINC000676564986   -0.0700
     21 C21       -10.0520   -4.0203   58.4372 C.ar    1  ZINC000676564986   -0.1100
     22 N22       -11.2068    0.0129   61.0054 N.ar    1  ZINC000676564986   -0.5900
     23 C23       -11.8243    0.9170   61.7435 C.ar    1  ZINC000676564986    0.3600
     24 N24       -11.4270    1.2276   62.9596 N.ar    1  ZINC000676564986   -0.5600
     25 C25       -10.3736    0.6262   63.5022 C.ar    1  ZINC000676564986    0.3000
     26 H26       -10.7624    1.0881   66.4831 H       1  ZINC000676564986    0.0800
     27 H27        -9.1677    1.8705   66.3687 H       1  ZINC000676564986    0.0900
     28 H28       -10.5404    2.5063   65.4306 H       1  ZINC000676564986    0.0900
     29 H29        -7.9755   -0.3227   65.4750 H       1  ZINC000676564986    0.2200
     30 H30        -8.7575   -1.3217   60.1136 H       1  ZINC000676564986    0.4200
     31 H31        -9.0777   -3.6332   60.8031 H       1  ZINC000676564986    0.0800
     32 H32       -10.6076   -3.1307   61.5613 H       1  ZINC000676564986    0.0800
     33 H33       -12.4697   -2.2970   60.0430 H       1  ZINC000676564986    0.1300
     34 H34       -13.6780   -2.8164   57.9632 H       1  ZINC000676564986    0.1400
     35 H35       -12.8830   -4.2966   52.7287 H       1  ZINC000676564986    0.1200
     36 H36       -11.7676   -2.8553   51.0753 H       1  ZINC000676564986    0.1300
     37 H37       -10.3581   -0.9818   51.8239 H       1  ZINC000676564986    0.1300
     38 H38       -10.0597   -0.5432   54.2271 H       1  ZINC000676564986    0.1300
     39 H39       -11.1747   -1.9746   55.8895 H       1  ZINC000676564986    0.1300
     40 H40       -10.2358   -4.8878   56.4931 H       1  ZINC000676564986    0.1300
     41 H41        -9.0353   -4.3576   58.5747 H       1  ZINC000676564986    0.1300
     42 H42       -12.6873    1.4210   61.3341 H       1  ZINC000676564986    0.2000
@<TRIPOS>BOND
     1     1     2    1
     2     1    26    1
     3     1    27    1
     4     1    28    1
     5     2    25    1
     6     2     3    1
     7     3     4    2
     8     3    29    1
     9     4     5    1
    10     5    25   ar
    11     5     6   ar
    12     6     7    1
    13     6    22   ar
    14     7     8    1
    15     7    30    1
    16     8     9    1
    17     8    31    1
    18     8    32    1
    19     9    21   ar
    20     9    10   ar
    21    10    11   ar
    22    10    33    1
    23    11    12   ar
    24    11    34    1
    25    12    13    1
    26    12    20   ar
    27    13    14    1
    28    14    19   ar
    29    14    15   ar
    30    15    16   ar
    31    15    35    1
    32    16    17   ar
    33    16    36    1
    34    17    18   ar
    35    17    37    1
    36    18    19   ar
    37    18    38    1
    38    19    39    1
    39    20    21   ar
    40    20    40    1
    41    21    41    1
    42    22    23   ar
    43    23    24   ar
    44    23    42    1
    45    24    25   ar
@<TRIPOS>SUBSTRUCTURE
     1 ZINC000676564986        1 TEMP              0 ****  ****    0 ROOT


##########                                Name:    ZINC000011498449
##########                DOCK_Rotatable_Bonds:                   5
##########                         Heavy_Atoms:                  21
##########                    Molecular_Weight:             331.198
##########                DOCK_Rotatable_Bonds:                   5
##########                       Formal_Charge:         1.30385e-07
##########                     HBond_Acceptors:                   7
##########                        HBond_Donors:                   1
##########                         Heavy_Atoms:                  21
##########                          Grid_Score:          -31.058182
##########                     Grid_vdw_energy:          -30.290764
##########                      Grid_es_energy:           -0.767419
##########           Internal_energy_repulsive:            9.016324

@<TRIPOS>MOLECULE
ZINC000011498449
 37 38 1 0 0
SMALL
USER_CHARGES


@<TRIPOS>ATOM
      1 C1        -11.4013   -2.4879   51.7613 C.3     1  ZINC000011498449   -0.1500
      2 C2        -12.2604   -2.5322   53.0266 C.3     1  ZINC000011498449    0.0700
      3 H3        -12.4551   -1.5163   53.3702 H       1  ZINC000011498449    0.0600
      4 C4        -11.5202   -3.3097   54.1210 C.3     1  ZINC000011498449    0.0800
      5 N5        -12.4369   -3.4994   55.2564 N.am    1  ZINC000011498449   -0.6100
      6 C6        -12.0621   -3.1813   56.5112 C.2     1  ZINC000011498449    0.5100
      7 O7        -12.8315   -3.3463   57.4341 O.2     1  ZINC000011498449   -0.5300
      8 C8        -10.6870   -2.6206   56.7676 C.3     1  ZINC000011498449    0.1000
      9 N9        -10.5785   -2.2162   58.1715 N.am    1  ZINC000011498449   -0.7200
     10 C10        -9.6888   -1.2708   58.5337 C.2     1  ZINC000011498449    0.5600
     11 O11        -8.9773   -0.7526   57.6952 O.2     1  ZINC000011498449   -0.5100
     12 C12        -9.5781   -0.8644   59.9495 C.ar    1  ZINC000011498449   -0.1300
     13 C13        -9.9437    0.4256   60.3392 C.ar    1  ZINC000011498449   -0.0600
     14 C14        -9.8387    0.7990   61.6622 C.ar    1  ZINC000011498449   -0.1100
     15 C15        -9.3717   -0.1021   62.6051 C.ar    1  ZINC000011498449    0.0000
     16 Cl16       -9.2433    0.3766   64.2688 Cl      1  ZINC000011498449   -0.0400
     17 C17        -9.0073   -1.3831   62.2263 C.ar    1  ZINC000011498449   -0.1100
     18 C18        -9.1126   -1.7713   60.9057 C.ar    1  ZINC000011498449    0.0300
     19 Cl19       -8.6555   -3.3775   60.4318 Cl      1  ZINC000011498449   -0.0100
     20 C20       -13.7751   -4.0461   54.9810 C.3     1  ZINC000011498449    0.0700
     21 C21       -14.4054   -3.2327   53.8449 C.3     1  ZINC000011498449    0.0500
     22 O22       -13.4995   -3.1852   52.7400 O.3     1  ZINC000011498449   -0.3700
     23 H23       -11.9290   -1.9364   50.9830 H       1  ZINC000011498449    0.0700
     24 H24       -10.4562   -1.9916   51.9811 H       1  ZINC000011498449    0.0800
     25 H25       -11.2070   -3.5041   51.4183 H       1  ZINC000011498449    0.0700
     26 H26       -11.2084   -4.2802   53.7348 H       1  ZINC000011498449    0.0800
     27 H27       -10.6461   -2.7451   54.4452 H       1  ZINC000011498449    0.1000
     28 H28        -9.9378   -3.3818   56.5499 H       1  ZINC000011498449    0.1000
     29 H29       -10.5223   -1.7547   56.1264 H       1  ZINC000011498449    0.1000
     30 H30       -11.1471   -2.6289   58.8405 H       1  ZINC000011498449    0.4100
     31 H31       -10.3077    1.1297   59.6056 H       1  ZINC000011498449    0.1500
     32 H32       -10.1210    1.7968   61.9643 H       1  ZINC000011498449    0.1500
     33 H33        -8.6438   -2.0811   62.9660 H       1  ZINC000011498449    0.1500
     34 H34       -13.6904   -5.0907   54.6815 H       1  ZINC000011498449    0.0900
     35 H35       -14.3942   -3.9691   55.8749 H       1  ZINC000011498449    0.1000
     36 H36       -15.3365   -3.7051   53.5320 H       1  ZINC000011498449    0.1100
     37 H37       -14.6087   -2.2196   54.1918 H       1  ZINC000011498449    0.0600
@<TRIPOS>BOND
     1     1     2    1
     2     1    23    1
     3     1    24    1
     4     1    25    1
     5     2     3    1
     6     2    22    1
     7     2     4    1
     8     4     5    1
     9     4    26    1
    10     4    27    1
    11     5     6   am
    12     5    20    1
    13     6     7    2
    14     6     8    1
    15     8     9    1
    16     8    28    1
    17     8    29    1
    18     9    10   am
    19     9    30    1
    20    10    11    2
    21    10    12    1
    22    12    18   ar
    23    12    13   ar
    24    13    14   ar
    25    13    31    1
    26    14    15   ar
    27    14    32    1
    28    15    16    1
    29    15    17   ar
    30    17    18   ar
    31    17    33    1
    32    18    19    1
    33    20    21    1
    34    20    34    1
    35    20    35    1
    36    21    22    1
    37    21    36    1
    38    21    37    1
@<TRIPOS>SUBSTRUCTURE
     1 ZINC000011498449        1 TEMP              0 ****  ****    0 ROOT


##########                                Name:    ZINC000458730620
##########                DOCK_Rotatable_Bonds:                   9
##########                         Heavy_Atoms:                  25
##########                    Molecular_Weight:              375.44
##########                DOCK_Rotatable_Bonds:                   9
##########                       Formal_Charge:        -1.86265e-07
##########                     HBond_Acceptors:                   9
##########                        HBond_Donors:                   3
##########                         Heavy_Atoms:                  25
##########                          Grid_Score:          -31.056543
##########                     Grid_vdw_energy:          -30.360397
##########                      Grid_es_energy:           -0.696146
##########           Internal_energy_repulsive:           43.360668

@<TRIPOS>MOLECULE
ZINC000458730620
 48 49 1 0 0
SMALL
USER_CHARGES


@<TRIPOS>ATOM
      1 C1        -13.9057   -1.2836   47.9484 C.3     1  ZINC000458730620   -0.1600
      2 C2        -14.6127   -1.2912   49.3053 C.3     1  ZINC000458730620    0.2000
      3 C3        -15.8150   -2.2358   49.2486 C.3     1  ZINC000458730620   -0.1600
      4 N4        -13.6807   -1.7484   50.3391 N.am    1  ZINC000458730620   -0.7400
      5 C5        -14.0590   -1.7538   51.6327 C.2     1  ZINC000458730620    0.7100
      6 O6        -15.1733   -1.3779   51.9419 O.2     1  ZINC000458730620   -0.5800
      7 N7        -13.2022   -2.1759   52.5835 N.am    1  ZINC000458730620   -0.7500
      8 C8        -13.6140   -2.1835   53.9894 C.3     1  ZINC000458730620    0.1300
      9 C9        -13.1004   -3.4570   54.6644 C.3     1  ZINC000458730620    0.1000
     10 N10       -13.9555   -3.7820   55.8087 N.am    1  ZINC000458730620   -1.1100
     11 S11       -13.4005   -4.7944   56.9959 S.o2    1  ZINC000458730620    2.7000
     12 O12       -14.3847   -4.7882   58.0209 O.2     1  ZINC000458730620   -0.9400
     13 O13       -12.9666   -5.9792   56.3423 O.2     1  ZINC000458730620   -0.9400
     14 C14       -11.9598   -4.0500   57.6848 C.ar    1  ZINC000458730620   -0.7300
     15 C15       -10.9184   -4.8421   58.1295 C.ar    1  ZINC000458730620    0.0400
     16 C16        -9.7874   -4.2593   58.6697 C.ar    1  ZINC000458730620   -0.1800
     17 C17        -9.6966   -2.8812   58.7658 C.ar    1  ZINC000458730620    0.1900
     18 F18        -8.5908   -2.3119   59.2935 F       1  ZINC000458730620   -0.1200
     19 C19       -10.7392   -2.0866   58.3206 C.ar    1  ZINC000458730620   -0.2100
     20 C20       -11.8690   -2.6710   57.7751 C.ar    1  ZINC000458730620    0.2200
     21 F21       -12.8872   -1.8968   57.3403 F       1  ZINC000458730620   -0.1100
     22 C22       -15.0908    0.1234   49.6391 C.3     1  ZINC000458730620   -0.1100
     23 C23       -13.9516    1.0865   50.0126 C.3     1  ZINC000458730620   -0.1400
     24 C24       -14.6968    2.1582   49.1997 C.3     1  ZINC000458730620   -0.1400
     25 C25       -15.3230    1.0037   48.3998 C.3     1  ZINC000458730620   -0.1400
     26 H26       -14.6156   -1.0028   47.1705 H       1  ZINC000458730620    0.0600
     27 H27       -13.0867   -0.5647   47.9695 H       1  ZINC000458730620    0.0500
     28 H28       -13.5112   -2.2778   47.7388 H       1  ZINC000458730620    0.0800
     29 H29       -15.4743   -3.2435   49.0108 H       1  ZINC000458730620    0.0800
     30 H30       -16.3186   -2.2412   50.2152 H       1  ZINC000458730620    0.0500
     31 H31       -16.5084   -1.8956   48.4794 H       1  ZINC000458730620    0.0600
     32 H32       -12.7915   -2.0472   50.0925 H       1  ZINC000458730620    0.3900
     33 H33       -12.3129   -2.4747   52.3370 H       1  ZINC000458730620    0.4000
     34 H34       -13.1983   -1.3117   54.4946 H       1  ZINC000458730620    0.0800
     35 H35       -14.7020   -2.1539   54.0496 H       1  ZINC000458730620    0.0800
     36 H36       -13.1207   -4.2802   53.9503 H       1  ZINC000458730620    0.0900
     37 H37       -12.0782   -3.2991   55.0079 H       1  ZINC000458730620    0.0700
     38 H38       -14.8466   -3.4041   55.8711 H       1  ZINC000458730620    0.4300
     39 H39       -10.9885   -5.9172   58.0553 H       1  ZINC000458730620    0.1700
     40 H40        -8.9743   -4.8794   59.0173 H       1  ZINC000458730620    0.1600
     41 H41       -10.6693   -1.0115   58.3952 H       1  ZINC000458730620    0.1600
     42 H42       -15.9220    0.1339   50.3442 H       1  ZINC000458730620    0.1100
     43 H43       -13.8975    1.3063   51.0788 H       1  ZINC000458730620    0.0700
     44 H44       -12.9873    0.8079   49.5874 H       1  ZINC000458730620    0.0800
     45 H45       -15.4198    2.7262   49.7852 H       1  ZINC000458730620    0.0800
     46 H46       -14.0383    2.7932   48.6070 H       1  ZINC000458730620    0.0700
     47 H47       -14.7337    0.7025   47.5337 H       1  ZINC000458730620    0.0800
     48 H48       -16.3761    1.1566   48.1640 H       1  ZINC000458730620    0.0700
@<TRIPOS>BOND
     1     1     2    1
     2     1    26    1
     3     1    27    1
     4     1    28    1
     5     2     3    1
     6     2     4    1
     7     2    22    1
     8     3    29    1
     9     3    30    1
    10     3    31    1
    11     4     5   am
    12     4    32    1
    13     5     6    2
    14     5     7   am
    15     7     8    1
    16     7    33    1
    17     8     9    1
    18     8    34    1
    19     8    35    1
    20     9    10    1
    21     9    36    1
    22     9    37    1
    23    10    11   am
    24    10    38    1
    25    11    12    2
    26    11    13    2
    27    11    14    1
    28    14    20   ar
    29    14    15   ar
    30    15    16   ar
    31    15    39    1
    32    16    17   ar
    33    16    40    1
    34    17    18    1
    35    17    19   ar
    36    19    20   ar
    37    19    41    1
    38    20    21    1
    39    22    25    1
    40    22    23    1
    41    22    42    1
    42    23    24    1
    43    23    43    1
    44    23    44    1
    45    24    25    1
    46    24    45    1
    47    24    46    1
    48    25    47    1
    49    25    48    1
@<TRIPOS>SUBSTRUCTURE
     1 ZINC000458730620        1 TEMP              0 ****  ****    0 ROOT


##########                                Name:    ZINC000629379364
##########                DOCK_Rotatable_Bonds:                   5
##########                         Heavy_Atoms:                  23
##########                    Molecular_Weight:             386.261
##########                DOCK_Rotatable_Bonds:                   5
##########                       Formal_Charge:               -0.02
##########                     HBond_Acceptors:                   5
##########                        HBond_Donors:                   1
##########                         Heavy_Atoms:                  23
##########                          Grid_Score:          -31.048820
##########                     Grid_vdw_energy:          -28.344191
##########                      Grid_es_energy:           -2.704630
##########           Internal_energy_repulsive:           20.373968

@<TRIPOS>MOLECULE
ZINC000629379364
 44 46 1 0 0
SMALL
USER_CHARGES


@<TRIPOS>ATOM
      1 O1        -12.6829   -3.3700   58.6052 O.co2   1  ZINC000629379364   -0.6800
      2 C2        -11.6541   -3.6363   58.0076 C.2     1  ZINC000629379364    0.5000
      3 O3        -11.6673   -4.4588   57.1076 O.co2   1  ZINC000629379364   -0.6900
      4 C4        -10.3674   -2.9442   58.3771 C.3     1  ZINC000629379364   -0.1600
      5 H5         -9.5650   -3.2733   57.7167 H       1  ZINC000629379364    0.0800
      6 C6        -10.0049   -3.2543   59.8400 C.3     1  ZINC000629379364   -0.1300
      7 C7         -8.7856   -2.4538   60.2878 C.3     1  ZINC000629379364   -0.0100
      8 N8         -8.9699   -1.0060   60.0698 N.4     1  ZINC000629379364   -0.3700
      9 H9         -8.1480   -0.5062   60.3741 H       1  ZINC000629379364    0.4200
     10 C10       -10.1448   -0.5346   60.8151 C.3     1  ZINC000629379364   -0.0200
     11 C11        -9.7032   -0.0018   62.1796 C.3     1  ZINC000629379364    0.0300
     12 O12       -10.8535    0.3760   62.9385 O.3     1  ZINC000629379364   -0.3200
     13 C13       -10.6319    0.9568   64.1470 C.ar    1  ZINC000629379364    0.1600
     14 C14       -11.7031    1.3421   64.9390 C.ar    1  ZINC000629379364   -0.2300
     15 C15       -11.4751    1.9333   66.1692 C.ar    1  ZINC000629379364    0.1500
     16 F16       -12.5179    2.3091   66.9416 F       1  ZINC000629379364   -0.1200
     17 C17       -10.1784    2.1395   66.6089 C.ar    1  ZINC000629379364   -0.1600
     18 C18        -9.1093    1.7559   65.8191 C.ar    1  ZINC000629379364   -0.0300
     19 Br19       -7.3396    2.0388   66.4226 Br      1  ZINC000629379364   -0.0100
     20 C20        -9.3336    1.1598   64.5923 C.ar    1  ZINC000629379364   -0.1300
     21 C21        -9.1728   -0.8022   58.6445 C.3     1  ZINC000629379364   -0.0100
     22 H22        -8.3728   -1.2827   58.0814 H       1  ZINC000629379364    0.1400
     23 C23        -9.3413    0.6490   58.1828 C.3     1  ZINC000629379364   -0.1300
     24 C24       -10.0888    0.5002   56.8298 C.3     1  ZINC000629379364   -0.1200
     25 C25       -10.8238   -0.8618   56.8843 C.3     1  ZINC000629379364   -0.1100
     26 C26       -10.5397   -1.4385   58.2740 C.3     1  ZINC000629379364   -0.0700
     27 H27       -11.2905   -1.0882   58.9824 H       1  ZINC000629379364    0.1000
     28 H28       -10.8515   -3.0031   60.4788 H       1  ZINC000629379364    0.0800
     29 H29        -9.7888   -4.3183   59.9367 H       1  ZINC000629379364    0.1100
     30 H30        -8.6127   -2.6339   61.3489 H       1  ZINC000629379364    0.1200
     31 H31        -7.9143   -2.7895   59.7256 H       1  ZINC000629379364    0.1300
     32 H32       -10.6347    0.2619   60.2551 H       1  ZINC000629379364    0.1400
     33 H33       -10.8413   -1.3612   60.9560 H       1  ZINC000629379364    0.1700
     34 H34        -9.1550   -0.7785   62.7129 H       1  ZINC000629379364    0.1100
     35 H35        -9.0591    0.8664   62.0396 H       1  ZINC000629379364    0.0900
     36 H36       -12.7144    1.1811   64.5957 H       1  ZINC000629379364    0.1500
     37 H37       -10.0014    2.6007   67.5694 H       1  ZINC000629379364    0.1500
     38 H38        -8.4983    0.8603   63.9767 H       1  ZINC000629379364    0.1500
     39 H39        -9.9430    1.2129   58.8955 H       1  ZINC000629379364    0.0800
     40 H40        -8.3704    1.1223   58.0366 H       1  ZINC000629379364    0.0900
     41 H41       -10.8090    1.3094   56.7093 H       1  ZINC000629379364    0.0800
     42 H42        -9.3756    0.5077   56.0056 H       1  ZINC000629379364    0.0800
     43 H43       -11.8942   -0.7192   56.7353 H       1  ZINC000629379364    0.0900
     44 H44       -10.4234   -1.5372   56.1283 H       1  ZINC000629379364    0.0800
@<TRIPOS>BOND
     1     1     2   ar
     2     2     3   ar
     3     2     4    1
     4     4     5    1
     5     4    26    1
     6     4     6    1
     7     6     7    1
     8     6    28    1
     9     6    29    1
    10     7     8    1
    11     7    30    1
    12     7    31    1
    13     8     9    1
    14     8    10    1
    15     8    21    1
    16    10    11    1
    17    10    32    1
    18    10    33    1
    19    11    12    1
    20    11    34    1
    21    11    35    1
    22    12    13    1
    23    13    20   ar
    24    13    14   ar
    25    14    15   ar
    26    14    36    1
    27    15    16    1
    28    15    17   ar
    29    17    18   ar
    30    17    37    1
    31    18    19    1
    32    18    20   ar
    33    20    38    1
    34    21    22    1
    35    21    26    1
    36    21    23    1
    37    23    24    1
    38    23    39    1
    39    23    40    1
    40    24    25    1
    41    24    41    1
    42    24    42    1
    43    25    26    1
    44    25    43    1
    45    25    44    1
    46    26    27    1
@<TRIPOS>SUBSTRUCTURE
     1 ZINC000629379364        1 TEMP              0 ****  ****    0 ROOT


##########                                Name:    ZINC000797321835
##########                DOCK_Rotatable_Bonds:                   4
##########                         Heavy_Atoms:                  22
##########                    Molecular_Weight:             381.253
##########                DOCK_Rotatable_Bonds:                   4
##########                       Formal_Charge:           0.0200001
##########                     HBond_Acceptors:                   7
##########                        HBond_Donors:                   1
##########                         Heavy_Atoms:                  22
##########                          Grid_Score:          -31.040136
##########                     Grid_vdw_energy:          -31.468477
##########                      Grid_es_energy:            0.428342
##########           Internal_energy_repulsive:            6.596943

@<TRIPOS>MOLECULE
ZINC000797321835
 35 37 1 0 0
SMALL
USER_CHARGES


@<TRIPOS>ATOM
      1 C1        -14.1218   -4.9850   57.5106 C.3     1  ZINC000797321835    0.1000
      2 N2        -13.4377   -4.4202   56.3448 N.am    1  ZINC000797321835   -0.6000
      3 C3        -14.0082   -4.2492   55.1397 C.2     1  ZINC000797321835    0.5200
      4 O4        -15.1518   -4.5445   54.8644 O.2     1  ZINC000797321835   -0.5200
      5 C5        -13.0164   -3.6341   54.1772 C.3     1  ZINC000797321835   -0.1500
      6 C6        -11.8983   -3.0774   55.0889 C.3     1  ZINC000797321835   -0.1200
      7 C7        -12.0431   -3.9629   56.3441 C.3     1  ZINC000797321835    0.1200
      8 H8        -11.3717   -4.8193   56.2812 H       1  ZINC000797321835    0.1100
      9 C9        -11.7485   -3.1604   57.5852 C.2     1  ZINC000797321835    0.4900
     10 O10       -12.6540   -2.6323   58.1951 O.2     1  ZINC000797321835   -0.4400
     11 N11       -10.4786   -3.0295   58.0173 N.am    1  ZINC000797321835   -0.6500
     12 C12       -10.2059   -2.2868   59.1660 C.ar    1  ZINC000797321835    0.3000
     13 C13       -10.4499   -0.9130   59.1829 C.ar    1  ZINC000797321835   -0.1400
     14 C14       -10.1652   -0.2164   60.3433 C.ar    1  ZINC000797321835   -0.0800
     15 C15        -9.6491   -0.9346   61.4302 C.ar    1  ZINC000797321835    0.1100
     16 C16        -9.3283   -0.2392   62.6929 C.2     1  ZINC000797321835   -0.1400
     17 C17        -8.6528   -0.7778   63.7284 C.2     1  ZINC000797321835   -0.0900
     18 C18        -8.4745    0.0679   64.8029 C.2     1  ZINC000797321835   -0.0900
     19 C19        -8.9975    1.2901   64.6543 C.2     1  ZINC000797321835   -0.2000
     20 Br20       -8.9196    2.6709   65.9441 Br      1  ZINC000797321835    0.0200
     21 S21        -9.7619    1.4217   63.0760 S.3     1  ZINC000797321835    0.1900
     22 N22        -9.4498   -2.2436   61.3202 N.ar    1  ZINC000797321835   -0.1900
     23 N23        -9.7205   -2.8861   60.2425 N.ar    1  ZINC000797321835   -0.2200
     24 H24       -14.6000   -4.1840   58.0745 H       1  ZINC000797321835    0.0700
     25 H25       -14.8775   -5.6970   57.1788 H       1  ZINC000797321835    0.0800
     26 H26       -13.3971   -5.4941   58.1460 H       1  ZINC000797321835    0.0700
     27 H27       -12.6173   -4.3928   53.5039 H       1  ZINC000797321835    0.1100
     28 H28       -13.4836   -2.8282   53.6111 H       1  ZINC000797321835    0.1100
     29 H29       -10.9189   -3.2064   54.6281 H       1  ZINC000797321835    0.1100
     30 H30       -12.0785   -2.0303   55.3320 H       1  ZINC000797321835    0.0900
     31 H31        -9.7543   -3.4519   57.5296 H       1  ZINC000797321835    0.4200
     32 H32       -10.8490   -0.4085   58.3155 H       1  ZINC000797321835    0.1600
     33 H33       -10.3351    0.8480   60.4096 H       1  ZINC000797321835    0.1500
     34 H34        -8.2810   -1.7918   63.7170 H       1  ZINC000797321835    0.1600
     35 H35        -7.9516   -0.2343   65.6981 H       1  ZINC000797321835    0.1600
@<TRIPOS>BOND
     1     1     2    1
     2     1    24    1
     3     1    25    1
     4     1    26    1
     5     2     7    1
     6     2     3   am
     7     3     4    2
     8     3     5    1
     9     5     6    1
    10     5    27    1
    11     5    28    1
    12     6     7    1
    13     6    29    1
    14     6    30    1
    15     7     8    1
    16     7     9    1
    17     9    10    2
    18     9    11   am
    19    11    12    1
    20    11    31    1
    21    12    23   ar
    22    12    13   ar
    23    13    14   ar
    24    13    32    1
    25    14    15   ar
    26    14    33    1
    27    15    16    1
    28    15    22   ar
    29    16    21    1
    30    16    17    2
    31    17    18    1
    32    17    34    1
    33    18    19    2
    34    18    35    1
    35    19    20    1
    36    19    21    1
    37    22    23   ar
@<TRIPOS>SUBSTRUCTURE
     1 ZINC000797321835        1 TEMP              0 ****  ****    0 ROOT


##########                                Name:    ZINC000438893617
##########                DOCK_Rotatable_Bonds:                   5
##########                         Heavy_Atoms:                  29
##########                    Molecular_Weight:             412.596
##########                DOCK_Rotatable_Bonds:                   5
##########                       Formal_Charge:           0.0600001
##########                     HBond_Acceptors:                   5
##########                        HBond_Donors:                   0
##########                         Heavy_Atoms:                  29
##########                          Grid_Score:          -30.995600
##########                     Grid_vdw_energy:          -30.760738
##########                      Grid_es_energy:           -0.234862
##########           Internal_energy_repulsive:          169.896545

@<TRIPOS>MOLECULE
ZINC000438893617
 61 66 1 0 0
SMALL
USER_CHARGES


@<TRIPOS>ATOM
      1 C1        -13.6304   -0.0272   61.4643 C.3     1  ZINC000438893617   -0.1000
      2 C2        -13.2685    1.3007   62.0779 C.2     1  ZINC000438893617   -0.0900
      3 C3        -12.1508    1.4849   62.7823 C.2     1  ZINC000438893617   -0.1600
      4 C4        -11.1151    0.4262   63.0608 C.3     1  ZINC000438893617   -0.0400
      5 H5        -11.5062   -0.5525   63.3385 H       1  ZINC000438893617    0.1400
      6 C6         -9.8045    0.8738   63.7112 C.3     1  ZINC000438893617   -0.1400
      7 C7         -9.8268    0.4642   62.2365 C.3     1  ZINC000438893617   -0.1800
      8 H8         -9.7280    1.2550   61.4929 H       1  ZINC000438893617    0.1300
      9 C9         -9.1948   -0.8542   61.8709 C.2     1  ZINC000438893617    0.5500
     10 O10        -8.4591   -1.4126   62.6569 O.2     1  ZINC000438893617   -0.5300
     11 N11        -9.4473   -1.4127   60.6705 N.am    1  ZINC000438893617   -0.6100
     12 C12        -8.8416   -2.7000   60.3022 C.3     1  ZINC000438893617    0.0900
     13 C13        -9.9600   -3.6734   59.9097 C.3     1  ZINC000438893617    0.1000
     14 N14       -10.8466   -3.0061   58.9460 N.am    1  ZINC000438893617   -0.6100
     15 C15       -11.0999   -3.5650   57.7460 C.2     1  ZINC000438893617    0.5300
     16 O16       -10.5945   -4.6280   57.4533 O.2     1  ZINC000438893617   -0.5300
     17 C17       -12.0112   -2.8691   56.7680 C.3     1  ZINC000438893617   -0.0700
     18 C18       -13.3789   -2.6450   57.4160 C.3     1  ZINC000438893617   -0.1100
     19 C19       -14.3040   -1.9385   56.4231 C.3     1  ZINC000438893617   -0.0800
     20 C20       -14.4677   -2.8053   55.1729 C.3     1  ZINC000438893617   -0.1100
     21 C21       -13.1000   -3.0294   54.5250 C.3     1  ZINC000438893617   -0.0800
     22 C22       -12.4935   -1.6802   54.1341 C.3     1  ZINC000438893617   -0.1100
     23 C23       -12.3298   -0.8134   55.3842 C.3     1  ZINC000438893617   -0.0900
     24 C24       -13.6976   -0.5892   56.0322 C.3     1  ZINC000438893617   -0.1100
     25 C25       -11.4047   -1.5199   56.3773 C.3     1  ZINC000438893617   -0.0900
     26 C26       -12.1749   -3.7360   55.5179 C.3     1  ZINC000438893617   -0.1200
     27 C27       -11.4523   -1.7188   59.3143 C.3     1  ZINC000438893617    0.0700
     28 C28       -10.3383   -0.7481   59.7091 C.3     1  ZINC000438893617    0.1000
     29 S29       -12.0705    3.1524   63.3359 S.3     1  ZINC000438893617    0.1000
     30 C30       -13.6046    3.5165   62.5565 C.2     1  ZINC000438893617   -0.2100
     31 C31       -14.0679    2.4234   61.9484 C.2     1  ZINC000438893617   -0.1300
     32 H32       -13.2150   -0.0880   60.4584 H       1  ZINC000438893617    0.0700
     33 H33       -13.2227   -0.8328   62.0750 H       1  ZINC000438893617    0.0700
     34 H34       -14.7152   -0.1214   61.4156 H       1  ZINC000438893617    0.0700
     35 H35        -9.6914    1.9339   63.9376 H       1  ZINC000438893617    0.1100
     36 H36        -9.3332    0.1893   64.4165 H       1  ZINC000438893617    0.1100
     37 H37        -8.1668   -2.5586   59.4580 H       1  ZINC000438893617    0.0800
     38 H38        -8.2893   -3.1010   61.1520 H       1  ZINC000438893617    0.1000
     39 H39        -9.5269   -4.5633   59.4529 H       1  ZINC000438893617    0.1100
     40 H40       -10.5286   -3.9540   60.7963 H       1  ZINC000438893617    0.0700
     41 H41       -13.8110   -3.6062   57.6943 H       1  ZINC000438893617    0.0800
     42 H42       -13.2622   -2.0274   58.3066 H       1  ZINC000438893617    0.0700
     43 H43       -15.2785   -1.7789   56.8846 H       1  ZINC000438893617    0.0800
     44 H44       -14.8998   -3.7665   55.4513 H       1  ZINC000438893617    0.0600
     45 H45       -15.1268   -2.3020   54.4656 H       1  ZINC000438893617    0.0700
     46 H46       -13.2166   -3.6469   53.6344 H       1  ZINC000438893617    0.0800
     47 H47       -11.5191   -1.8398   53.6725 H       1  ZINC000438893617    0.0600
     48 H48       -13.1525   -1.1769   53.4268 H       1  ZINC000438893617    0.0700
     49 H49       -11.8977    0.1479   55.1059 H       1  ZINC000438893617    0.0700
     50 H50       -14.3566   -0.0859   55.3249 H       1  ZINC000438893617    0.0700
     51 H51       -13.5809    0.0283   56.9228 H       1  ZINC000438893617    0.0600
     52 H52       -11.2881   -0.9024   57.2678 H       1  ZINC000438893617    0.0700
     53 H53       -10.4302   -1.6796   55.9156 H       1  ZINC000438893617    0.0700
     54 H54       -11.2004   -3.8956   55.0563 H       1  ZINC000438893617    0.0700
     55 H55       -12.6069   -4.6971   55.7963 H       1  ZINC000438893617    0.0800
     56 H56       -12.0046   -1.3178   58.4645 H       1  ZINC000438893617    0.1300
     57 H57       -12.1271   -1.8603   60.1586 H       1  ZINC000438893617    0.0800
     58 H58       -10.7728    0.1412   60.1655 H       1  ZINC000438893617    0.1100
     59 H59        -9.7678   -0.4665   58.8240 H       1  ZINC000438893617    0.0700
     60 H60       -14.0943    4.4790   62.5652 H       1  ZINC000438893617    0.1700
     61 H61       -15.0001    2.4129   61.4031 H       1  ZINC000438893617    0.1400
@<TRIPOS>BOND
     1     1     2    1
     2     1    32    1
     3     1    33    1
     4     1    34    1
     5     2    31    1
     6     2     3    2
     7     3     4    1
     8     3    29    1
     9     4     5    1
    10     4     7    1
    11     4     6    1
    12     6     7    1
    13     6    35    1
    14     6    36    1
    15     7     8    1
    16     7     9    1
    17     9    10    2
    18     9    11   am
    19    11    28    1
    20    11    12    1
    21    12    13    1
    22    12    37    1
    23    12    38    1
    24    13    14    1
    25    13    39    1
    26    13    40    1
    27    14    15   am
    28    14    27    1
    29    15    16    2
    30    15    17    1
    31    17    25    1
    32    17    26    1
    33    17    18    1
    34    18    19    1
    35    18    41    1
    36    18    42    1
    37    19    24    1
    38    19    20    1
    39    19    43    1
    40    20    21    1
    41    20    44    1
    42    20    45    1
    43    21    22    1
    44    21    26    1
    45    21    46    1
    46    22    23    1
    47    22    47    1
    48    22    48    1
    49    23    24    1
    50    23    25    1
    51    23    49    1
    52    24    50    1
    53    24    51    1
    54    25    52    1
    55    25    53    1
    56    26    54    1
    57    26    55    1
    58    27    28    1
    59    27    56    1
    60    27    57    1
    61    28    58    1
    62    28    59    1
    63    29    30    1
    64    30    31    2
    65    30    60    1
    66    31    61    1
@<TRIPOS>SUBSTRUCTURE
     1 ZINC000438893617        1 TEMP              0 ****  ****    0 ROOT


##########                                Name:    ZINC000768148687
##########                DOCK_Rotatable_Bonds:                   8
##########                         Heavy_Atoms:                  25
##########                    Molecular_Weight:             371.307
##########                DOCK_Rotatable_Bonds:                   8
##########                       Formal_Charge:         2.98023e-08
##########                     HBond_Acceptors:                  11
##########                        HBond_Donors:                   0
##########                         Heavy_Atoms:                  25
##########                          Grid_Score:          -30.974306
##########                     Grid_vdw_energy:          -30.788813
##########                      Grid_es_energy:           -0.185494
##########           Internal_energy_repulsive:           17.366009

@<TRIPOS>MOLECULE
ZINC000768148687
 43 44 1 0 0
SMALL
USER_CHARGES


@<TRIPOS>ATOM
      1 C1         -2.5427    2.0433   47.4214 C.3     1  ZINC000768148687   -0.1800
      2 C2         -2.0522    1.4345   48.7365 C.3     1  ZINC000768148687    0.1100
      3 N3         -2.9990    1.7568   49.8070 N.pl3   1  ZINC000768148687   -0.3100
      4 N4         -4.3269    1.3218   49.8822 N.2     1  ZINC000768148687   -0.2000
      5 C5         -4.8679    1.8007   50.9681 C.2     1  ZINC000768148687    0.0200
      6 C6         -6.2850    1.5719   51.4268 C.3     1  ZINC000768148687    0.5500
      7 F7         -6.4577    2.1238   52.7007 F       1  ZINC000768148687   -0.1600
      8 F8         -7.1694    2.1818   50.5307 F       1  ZINC000768148687   -0.1600
      9 F9         -6.5436    0.1979   51.4749 F       1  ZINC000768148687   -0.1500
     10 C10        -3.8919    2.5720   51.6392 C.2     1  ZINC000768148687   -0.1800
     11 C11        -4.0710    3.2966   52.9090 C.2     1  ZINC000768148687    0.5300
     12 O12        -4.5426    4.4166   52.9081 O.2     1  ZINC000768148687   -0.4700
     13 O13        -3.7120    2.7176   54.0717 O.3     1  ZINC000768148687   -0.3400
     14 C14        -4.0119    3.4464   55.2912 C.3     1  ZINC000768148687    0.0200
     15 C15        -3.7068    2.5621   56.5018 C.3     1  ZINC000768148687    0.0600
     16 N16        -2.3746    2.8917   57.0257 N.3     1  ZINC000768148687   -0.5300
     17 C17        -1.3465    2.7367   55.9864 C.3     1  ZINC000768148687    0.0100
     18 C18         0.0139    3.1464   56.5566 C.3     1  ZINC000768148687    0.0600
     19 O19         0.2950    2.3599   57.7176 O.3     1  ZINC000768148687   -0.3800
     20 C20        -0.6859    2.4875   58.7505 C.3     1  ZINC000768148687    0.0600
     21 C21        -2.0535    2.0710   58.2025 C.3     1  ZINC000768148687    0.0100
     22 C22        -2.7369    2.5141   50.8838 C.2     1  ZINC000768148687    0.0600
     23 C23        -1.4267    3.1860   51.2043 C.3     1  ZINC000768148687    0.3400
     24 F24        -0.9938    3.9178   50.0934 F       1  ZINC000768148687   -0.1700
     25 F25        -1.5987    4.0482   52.2925 F       1  ZINC000768148687   -0.1800
     26 H26        -1.8383    1.8035   46.6250 H       1  ZINC000768148687    0.0900
     27 H27        -3.5227    1.6345   47.1749 H       1  ZINC000768148687    0.0700
     28 H28        -2.6167    3.1256   47.5274 H       1  ZINC000768148687    0.0700
     29 H29        -1.9782    0.3522   48.6307 H       1  ZINC000768148687    0.1100
     30 H30        -1.0723    1.8433   48.9830 H       1  ZINC000768148687    0.1200
     31 H31        -3.4001    4.3473   55.3359 H       1  ZINC000768148687    0.0800
     32 H32        -5.0664    3.7224   55.2994 H       1  ZINC000768148687    0.0800
     33 H33        -4.4545    2.7351   57.2758 H       1  ZINC000768148687    0.1100
     34 H34        -3.7302    1.5145   56.2017 H       1  ZINC000768148687    0.0900
     35 H35        -1.3080    1.6959   55.6649 H       1  ZINC000768148687    0.0500
     36 H36        -1.5908    3.3723   55.1352 H       1  ZINC000768148687    0.0900
     37 H37         0.7879    2.9791   55.8075 H       1  ZINC000768148687    0.1000
     38 H38        -0.0083    4.2017   56.8285 H       1  ZINC000768148687    0.0600
     39 H39        -0.4181    1.8435   59.5882 H       1  ZINC000768148687    0.1000
     40 H40        -0.7285    3.5236   59.0862 H       1  ZINC000768148687    0.0600
     41 H41        -2.8137    2.2208   58.9691 H       1  ZINC000768148687    0.0800
     42 H42        -2.0261    1.0196   57.9165 H       1  ZINC000768148687    0.0700
     43 H43        -0.6821    2.4300   51.4539 H       1  ZINC000768148687    0.1500
@<TRIPOS>BOND
     1     1     2    1
     2     1    26    1
     3     1    27    1
     4     1    28    1
     5     2     3    1
     6     2    29    1
     7     2    30    1
     8     3    22    1
     9     3     4    1
    10     4     5    2
    11     5     6    1
    12     5    10    1
    13     6     7    1
    14     6     8    1
    15     6     9    1
    16    10    11    1
    17    10    22    2
    18    11    12    2
    19    11    13    1
    20    13    14    1
    21    14    15    1
    22    14    31    1
    23    14    32    1
    24    15    16    1
    25    15    33    1
    26    15    34    1
    27    16    21    1
    28    16    17    1
    29    17    18    1
    30    17    35    1
    31    17    36    1
    32    18    19    1
    33    18    37    1
    34    18    38    1
    35    19    20    1
    36    20    21    1
    37    20    39    1
    38    20    40    1
    39    21    41    1
    40    21    42    1
    41    22    23    1
    42    23    24    1
    43    23    25    1
    44    23    43    1
@<TRIPOS>SUBSTRUCTURE
     1 ZINC000768148687        1 TEMP              0 ****  ****    0 ROOT


##########                                Name:    ZINC000581017854
##########                DOCK_Rotatable_Bonds:                   6
##########                         Heavy_Atoms:                  24
##########                    Molecular_Weight:             330.334
##########                DOCK_Rotatable_Bonds:                   6
##########                       Formal_Charge:           0.0099998
##########                     HBond_Acceptors:                   6
##########                        HBond_Donors:                   2
##########                         Heavy_Atoms:                  24
##########                          Grid_Score:          -30.967636
##########                     Grid_vdw_energy:          -28.809355
##########                      Grid_es_energy:           -2.158281
##########           Internal_energy_repulsive:           10.564362

@<TRIPOS>MOLECULE
ZINC000581017854
 40 42 1 0 0
SMALL
USER_CHARGES


@<TRIPOS>ATOM
      1 C1        -14.2797   -4.9435   57.1797 C.3     1  ZINC000581017854   -0.1600
      2 C2        -12.7864   -4.8294   56.8668 C.3     1  ZINC000581017854    0.1500
      3 H3        -12.3424   -5.8247   56.8465 H       1  ZINC000581017854    0.1100
      4 C4        -12.6005   -4.1602   55.5036 C.3     1  ZINC000581017854    0.0500
      5 O5        -12.9492   -2.7777   55.6001 O.3     1  ZINC000581017854   -0.3100
      6 C6        -12.7504   -2.0127   54.4946 C.ar    1  ZINC000581017854    0.1600
      7 C7        -13.1192   -0.6753   54.5001 C.ar    1  ZINC000581017854   -0.2200
      8 C8        -12.9166    0.1016   53.3755 C.ar    1  ZINC000581017854   -0.0500
      9 C9        -12.3472   -0.4520   52.2444 C.ar    1  ZINC000581017854   -0.1900
     10 C10       -11.9782   -1.7871   52.2352 C.ar    1  ZINC000581017854    0.1400
     11 F11       -11.4218   -2.3264   51.1285 F       1  ZINC000581017854   -0.1300
     12 C12       -12.1733   -2.5666   53.3614 C.ar    1  ZINC000581017854   -0.1900
     13 N13       -12.1312   -4.0234   57.8999 N.am    1  ZINC000581017854   -0.7300
     14 C14       -10.9070   -4.3666   58.3469 C.2     1  ZINC000581017854    0.5900
     15 O15       -10.3464   -5.3466   57.8934 O.2     1  ZINC000581017854   -0.5400
     16 C16       -10.2492   -3.5572   59.3816 C.2     1  ZINC000581017854   -0.2200
     17 C17        -8.9305   -3.5887   59.7265 C.2     1  ZINC000581017854    0.1100
     18 N18        -8.6958   -2.7000   60.7223 N.pl3   1  ZINC000581017854   -0.5700
     19 C19        -9.8607   -2.0478   61.0702 C.ar    1  ZINC000581017854    0.1100
     20 C20       -10.1577   -1.0670   62.0104 C.ar    1  ZINC000581017854   -0.1600
     21 C21       -11.4500   -0.5980   62.1309 C.ar    1  ZINC000581017854    0.1200
     22 F22       -11.7340    0.3551   63.0452 F       1  ZINC000581017854   -0.1400
     23 C23       -12.4614   -1.0970   61.3197 C.ar    1  ZINC000581017854   -0.1700
     24 C24       -12.1848   -2.0688   60.3831 C.ar    1  ZINC000581017854   -0.0300
     25 C25       -10.8839   -2.5461   60.2476 C.ar    1  ZINC000581017854   -0.0700
     26 H26       -14.7672   -5.5432   56.4110 H       1  ZINC000581017854    0.0700
     27 H27       -14.4121   -5.4202   58.1508 H       1  ZINC000581017854    0.0700
     28 H28       -14.7237   -3.9482   57.1999 H       1  ZINC000581017854    0.0700
     29 H29       -11.5597   -4.2516   55.1928 H       1  ZINC000581017854    0.0700
     30 H30       -13.2430   -4.6465   54.7695 H       1  ZINC000581017854    0.0800
     31 H31       -13.5648   -0.2415   55.3831 H       1  ZINC000581017854    0.1400
     32 H32       -13.2039    1.1427   53.3803 H       1  ZINC000581017854    0.1400
     33 H33       -12.1901    0.1570   51.3664 H       1  ZINC000581017854    0.1400
     34 H34       -11.8855   -3.6075   53.3549 H       1  ZINC000581017854    0.1400
     35 H35       -12.5785   -3.2427   58.2623 H       1  ZINC000581017854    0.4000
     36 H36        -8.1851   -4.2259   59.2741 H       1  ZINC000581017854    0.1800
     37 H37        -7.8307   -2.5448   61.1331 H       1  ZINC000581017854    0.4200
     38 H38        -9.3782   -0.6732   62.6457 H       1  ZINC000581017854    0.1400
     39 H39       -13.4688   -0.7219   61.4241 H       1  ZINC000581017854    0.1400
     40 H40       -12.9728   -2.4555   59.7538 H       1  ZINC000581017854    0.1500
@<TRIPOS>BOND
     1     1     2    1
     2     1    26    1
     3     1    27    1
     4     1    28    1
     5     2     3    1
     6     2     4    1
     7     2    13    1
     8     4     5    1
     9     4    29    1
    10     4    30    1
    11     5     6    1
    12     6    12   ar
    13     6     7   ar
    14     7     8   ar
    15     7    31    1
    16     8     9   ar
    17     8    32    1
    18     9    10   ar
    19     9    33    1
    20    10    11    1
    21    10    12   ar
    22    12    34    1
    23    13    14   am
    24    13    35    1
    25    14    15    2
    26    14    16    1
    27    16    25    1
    28    16    17    2
    29    17    18    1
    30    17    36    1
    31    18    19    1
    32    18    37    1
    33    19    25   ar
    34    19    20   ar
    35    20    21   ar
    36    20    38    1
    37    21    22    1
    38    21    23   ar
    39    23    24   ar
    40    23    39    1
    41    24    25   ar
    42    24    40    1
@<TRIPOS>SUBSTRUCTURE
     1 ZINC000581017854        1 TEMP              0 ****  ****    0 ROOT


##########                                Name:    ZINC000817655807
##########                DOCK_Rotatable_Bonds:                   3
##########                         Heavy_Atoms:                  24
##########                    Molecular_Weight:             352.774
##########                DOCK_Rotatable_Bonds:                   3
##########                       Formal_Charge:         3.35276e-07
##########                     HBond_Acceptors:                   8
##########                        HBond_Donors:                   0
##########                         Heavy_Atoms:                  24
##########                          Grid_Score:          -30.954367
##########                     Grid_vdw_energy:          -31.061979
##########                      Grid_es_energy:            0.107613
##########           Internal_energy_repulsive:            3.550464

@<TRIPOS>MOLECULE
ZINC000817655807
 41 44 1 0 0
SMALL
USER_CHARGES


@<TRIPOS>ATOM
      1 C1         -8.5245    1.1551   54.1749 C.3     1  ZINC000817655807    0.1100
      2 N2         -9.1002    0.0531   53.4000 N.am    1  ZINC000817655807   -0.6400
      3 C3        -10.3247   -0.6907   53.7460 C.3     1  ZINC000817655807    0.1000
      4 C4        -10.4518   -1.7079   52.6084 C.3     1  ZINC000817655807    0.0500
      5 C5        -10.6688   -3.1597   53.0356 C.3     1  ZINC000817655807    0.1200
      6 N6        -12.1102   -2.8781   52.8710 N.am    1  ZINC000817655807   -0.6500
      7 C7        -13.2392   -3.4118   53.3782 C.2     1  ZINC000817655807    0.5500
      8 O8        -14.3194   -2.9656   53.0546 O.2     1  ZINC000817655807   -0.5100
      9 C9        -13.1591   -4.5630   54.3474 C.3     1  ZINC000817655807   -0.0900
     10 C10       -13.1371   -4.0318   55.7576 C.ar    1  ZINC000817655807   -0.0600
     11 C11       -11.9295   -3.8059   56.3908 C.ar    1  ZINC000817655807   -0.0900
     12 C12       -11.9056   -3.3204   57.6860 C.ar    1  ZINC000817655807   -0.0300
     13 Cl13      -10.3870   -3.0383   58.4785 Cl      1  ZINC000817655807   -0.0500
     14 C14       -13.0944   -3.0585   58.3519 C.ar    1  ZINC000817655807    0.0600
     15 O15       -13.0555   -2.5886   59.6289 O.3     1  ZINC000817655807   -0.2900
     16 C16       -14.2546   -1.9877   60.1302 C.3     1  ZINC000817655807    0.0200
     17 C17       -15.4357   -2.8994   59.7710 C.3     1  ZINC000817655807    0.0200
     18 O18       -15.4858   -3.0276   58.3459 O.3     1  ZINC000817655807   -0.3000
     19 C19       -14.3080   -3.2824   57.7130 C.ar    1  ZINC000817655807    0.0600
     20 C20       -14.3246   -3.7661   56.4132 C.ar    1  ZINC000817655807   -0.0900
     21 C21       -11.8195   -1.7775   51.9286 C.3     1  ZINC000817655807    0.1100
     22 O22        -9.3184   -1.4541   51.7466 O.3     1  ZINC000817655807   -0.3000
     23 C23        -8.6023   -0.4404   52.2560 C.2     1  ZINC000817655807    0.6400
     24 O24        -7.5916   -0.0137   51.7335 O.2     1  ZINC000817655807   -0.5100
     25 H25        -7.6237    1.5164   53.6789 H       1  ZINC000817655807    0.0900
     26 H26        -9.2494    1.9659   54.2473 H       1  ZINC000817655807    0.0700
     27 H27        -8.2722    0.8029   55.1752 H       1  ZINC000817655807    0.0700
     28 H28       -10.2089   -1.1977   54.7040 H       1  ZINC000817655807    0.1000
     29 H29       -11.1871   -0.0244   53.7643 H       1  ZINC000817655807    0.1000
     30 H30       -10.2791   -3.8901   52.3266 H       1  ZINC000817655807    0.1100
     31 H31       -10.3749   -3.3643   54.0650 H       1  ZINC000817655807    0.1000
     32 H32       -14.0267   -5.2095   54.2162 H       1  ZINC000817655807    0.1100
     33 H33       -12.2493   -5.1333   54.1598 H       1  ZINC000817655807    0.1100
     34 H34       -11.0033   -4.0089   55.8739 H       1  ZINC000817655807    0.1400
     35 H35       -14.1879   -1.8821   61.2130 H       1  ZINC000817655807    0.1300
     36 H36       -14.3940   -1.0082   59.6727 H       1  ZINC000817655807    0.0800
     37 H37       -15.2935   -3.8808   60.2235 H       1  ZINC000817655807    0.0800
     38 H38       -16.3642   -2.4580   60.1331 H       1  ZINC000817655807    0.1300
     39 H39       -15.2667   -3.9389   55.9141 H       1  ZINC000817655807    0.1400
     40 H40       -12.4341   -0.8908   52.0843 H       1  ZINC000817655807    0.1000
     41 H41       -11.7773   -2.0906   50.8855 H       1  ZINC000817655807    0.1100
@<TRIPOS>BOND
     1     1     2    1
     2     1    25    1
     3     1    26    1
     4     1    27    1
     5     2    23   am
     6     2     3    1
     7     3     4    1
     8     3    28    1
     9     3    29    1
    10     4    21    1
    11     4     5    1
    12     4    22    1
    13     5     6    1
    14     5    30    1
    15     5    31    1
    16     6     7   am
    17     6    21    1
    18     7     8    2
    19     7     9    1
    20     9    10    1
    21     9    32    1
    22     9    33    1
    23    10    20   ar
    24    10    11   ar
    25    11    12   ar
    26    11    34    1
    27    12    13    1
    28    12    14   ar
    29    14    19   ar
    30    14    15    1
    31    15    16    1
    32    16    17    1
    33    16    35    1
    34    16    36    1
    35    17    18    1
    36    17    37    1
    37    17    38    1
    38    18    19    1
    39    19    20   ar
    40    20    39    1
    41    21    40    1
    42    21    41    1
    43    22    23    1
    44    23    24    2
@<TRIPOS>SUBSTRUCTURE
     1 ZINC000817655807        1 TEMP              0 ****  ****    0 ROOT


##########                                Name:    ZINC000271662144
##########                DOCK_Rotatable_Bonds:                   8
##########                         Heavy_Atoms:                  26
##########                    Molecular_Weight:             390.402
##########                DOCK_Rotatable_Bonds:                   8
##########                       Formal_Charge:          0.00999944
##########                     HBond_Acceptors:                   9
##########                        HBond_Donors:                   3
##########                         Heavy_Atoms:                  26
##########                          Grid_Score:          -30.945929
##########                     Grid_vdw_energy:          -29.038710
##########                      Grid_es_energy:           -1.907220
##########           Internal_energy_repulsive:           11.698081

@<TRIPOS>MOLECULE
ZINC000271662144
 44 45 1 0 0
SMALL
USER_CHARGES


@<TRIPOS>ATOM
      1 C1        -14.9900   -4.2461   58.0806 C.3     1  ZINC000271662144   -0.1400
      2 C2        -13.9485   -3.4346   57.3077 C.3     1  ZINC000271662144    0.1200
      3 H3        -14.1366   -2.3707   57.4520 H       1  ZINC000271662144    0.0600
      4 N4        -14.0384   -3.7582   55.8776 N.3     1  ZINC000271662144   -0.6700
      5 C5        -13.2318   -2.8283   55.0757 C.3     1  ZINC000271662144    0.1300
      6 H6        -12.3300   -2.5613   55.6269 H       1  ZINC000271662144    0.1100
      7 C7        -12.8435   -3.4975   53.7559 C.3     1  ZINC000271662144   -0.2000
      8 C8        -11.7452   -2.6799   53.0732 C.3     1  ZINC000271662144    0.4600
      9 F9        -12.3071   -1.5384   52.4913 F       1  ZINC000271662144   -0.1800
     10 F10       -10.7903   -2.2979   54.0216 F       1  ZINC000271662144   -0.1800
     11 F11       -11.1340   -3.4556   52.0822 F       1  ZINC000271662144   -0.1700
     12 C12       -14.0336   -1.5845   54.7915 C.ar    1  ZINC000271662144   -0.0900
     13 C13       -13.5976   -0.3593   55.2607 C.ar    1  ZINC000271662144   -0.0600
     14 C14       -14.3320    0.7820   55.0007 C.ar    1  ZINC000271662144   -0.1600
     15 C15       -15.5049    0.6983   54.2696 C.ar    1  ZINC000271662144    0.1000
     16 F16       -16.2235    1.8135   54.0144 F       1  ZINC000271662144   -0.1400
     17 C17       -15.9404   -0.5292   53.7997 C.ar    1  ZINC000271662144   -0.1500
     18 C18       -15.2017   -1.6686   54.0570 C.ar    1  ZINC000271662144   -0.0700
     19 C19       -12.5703   -3.7743   57.8138 C.ar    1  ZINC000271662144   -0.1100
     20 C20       -12.0170   -5.0098   57.5355 C.ar    1  ZINC000271662144   -0.0400
     21 C21       -10.7526   -5.3215   57.9999 C.ar    1  ZINC000271662144   -0.1400
     22 C22       -10.0417   -4.3973   58.7421 C.ar    1  ZINC000271662144   -0.0200
     23 C23       -10.5948   -3.1611   59.0199 C.ar    1  ZINC000271662144   -0.6800
     24 S24        -9.6888   -1.9831   59.9666 S.o2    1  ZINC000271662144    2.7000
     25 N25        -8.7678   -2.8302   61.0513 N.am    1  ZINC000271662144   -1.2500
     26 O26        -8.7802   -1.3603   59.0689 O.2     1  ZINC000271662144   -0.9600
     27 O27       -10.6452   -1.2609   60.7299 O.2     1  ZINC000271662144   -0.9600
     28 C28       -11.8571   -2.8479   58.5520 C.ar    1  ZINC000271662144   -0.0100
     29 H29       -15.9869   -4.0004   57.7145 H       1  ZINC000271662144    0.0600
     30 H30       -14.8020   -5.3101   57.9363 H       1  ZINC000271662144    0.0700
     31 H31       -14.9233   -4.0060   59.1418 H       1  ZINC000271662144    0.0600
     32 H32       -13.7658   -4.7143   55.7054 H       1  ZINC000271662144    0.3500
     33 H33       -12.4769   -4.5049   53.9532 H       1  ZINC000271662144    0.1100
     34 H34       -13.7158   -3.5495   53.1044 H       1  ZINC000271662144    0.1200
     35 H35       -12.6827   -0.2943   55.8309 H       1  ZINC000271662144    0.1300
     36 H36       -13.9916    1.7388   55.3679 H       1  ZINC000271662144    0.1400
     37 H37       -16.8553   -0.5958   53.2297 H       1  ZINC000271662144    0.1400
     38 H38       -15.5411   -2.6260   53.6902 H       1  ZINC000271662144    0.1300
     39 H39       -12.5724   -5.7320   56.9556 H       1  ZINC000271662144    0.1400
     40 H40       -10.3204   -6.2873   57.7830 H       1  ZINC000271662144    0.1400
     41 H41        -9.0542   -4.6411   59.1055 H       1  ZINC000271662144    0.1400
     42 H42        -9.1947   -3.4098   61.7015 H       1  ZINC000271662144    0.4200
     43 H43        -7.8016   -2.7467   61.0365 H       1  ZINC000271662144    0.4200
     44 H44       -12.2892   -1.8822   58.7688 H       1  ZINC000271662144    0.1400
@<TRIPOS>BOND
     1     1     2    1
     2     1    29    1
     3     1    30    1
     4     1    31    1
     5     2     3    1
     6     2     4    1
     7     2    19    1
     8     4     5    1
     9     4    32    1
    10     5     6    1
    11     5     7    1
    12     5    12    1
    13     7     8    1
    14     7    33    1
    15     7    34    1
    16     8     9    1
    17     8    10    1
    18     8    11    1
    19    12    18   ar
    20    12    13   ar
    21    13    14   ar
    22    13    35    1
    23    14    15   ar
    24    14    36    1
    25    15    16    1
    26    15    17   ar
    27    17    18   ar
    28    17    37    1
    29    18    38    1
    30    19    28   ar
    31    19    20   ar
    32    20    21   ar
    33    20    39    1
    34    21    22   ar
    35    21    40    1
    36    22    23   ar
    37    22    41    1
    38    23    24    1
    39    23    28   ar
    40    24    25   am
    41    24    26    2
    42    24    27    2
    43    25    42    1
    44    25    43    1
    45    28    44    1
@<TRIPOS>SUBSTRUCTURE
     1 ZINC000271662144        1 TEMP              0 ****  ****    0 ROOT


##########                                Name:    ZINC000899027326
##########                DOCK_Rotatable_Bonds:                   5
##########                         Heavy_Atoms:                  22
##########                    Molecular_Weight:             346.169
##########                DOCK_Rotatable_Bonds:                   5
##########                       Formal_Charge:           0.0300005
##########                     HBond_Acceptors:                   9
##########                        HBond_Donors:                   1
##########                         Heavy_Atoms:                  22
##########                          Grid_Score:          -30.941847
##########                     Grid_vdw_energy:          -30.266933
##########                      Grid_es_energy:           -0.674913
##########           Internal_energy_repulsive:           14.207617

@<TRIPOS>MOLECULE
ZINC000899027326
 35 36 1 0 0
SMALL
USER_CHARGES


@<TRIPOS>ATOM
      1 C1         -9.5359   -1.3561   60.9284 C.3     1  ZINC000899027326   -0.1500
      2 C2         -9.0335   -1.9069   59.5923 C.3     1  ZINC000899027326    0.1100
      3 H3         -7.9464   -1.9873   59.5964 H       1  ZINC000899027326    0.1400
      4 C4         -9.6667   -3.2524   59.2982 C.2     1  ZINC000899027326    0.5300
      5 O5         -9.5677   -4.2673   59.9539 O.2     1  ZINC000899027326   -0.4500
      6 N6        -10.3630   -3.0855   58.1565 N.am    1  ZINC000899027326   -0.3700
      7 N7        -11.1051   -4.0968   57.5323 N.am    1  ZINC000899027326   -0.5000
      8 C8        -12.4481   -4.0045   57.4666 C.2     1  ZINC000899027326    0.5200
      9 O9        -13.0141   -3.0453   57.9466 O.2     1  ZINC000899027326   -0.4800
     10 C10       -13.2463   -5.0931   56.7967 C.3     1  ZINC000899027326    0.0500
     11 O11       -14.3129   -4.5088   56.0464 O.3     1  ZINC000899027326   -0.2700
     12 C12       -13.9796   -3.8735   54.8917 C.ar    1  ZINC000899027326    0.1400
     13 C13       -12.6645   -3.8766   54.4523 C.ar    1  ZINC000899027326   -0.1900
     14 C14       -12.3274   -3.2303   53.2782 C.ar    1  ZINC000899027326   -0.0600
     15 C15       -13.3007   -2.5802   52.5410 C.ar    1  ZINC000899027326   -0.0600
     16 Cl16      -12.8742   -1.7698   51.0662 Cl      1  ZINC000899027326   -0.0500
     17 C17       -14.6141   -2.5755   52.9771 C.ar    1  ZINC000899027326   -0.0600
     18 C18       -14.9565   -3.2255   54.1477 C.ar    1  ZINC000899027326   -0.0500
     19 Cl19      -16.6041   -3.2196   54.6949 Cl      1  ZINC000899027326   -0.0300
     20 C20       -10.2589   -1.8347   57.6933 C.2     1  ZINC000899027326    0.7000
     21 O21       -10.7992   -1.4434   56.6773 O.2     1  ZINC000899027326   -0.5200
     22 N22        -9.4861   -1.0564   58.4779 N.am    1  ZINC000899027326   -0.6200
     23 C23        -9.1650    0.3570   58.2643 C.3     1  ZINC000899027326    0.1200
     24 H24       -10.6240   -1.2946   60.9100 H       1  ZINC000899027326    0.0700
     25 H25        -9.2230   -2.0187   61.7352 H       1  ZINC000899027326    0.0900
     26 H26        -9.1186   -0.3625   61.0918 H       1  ZINC000899027326    0.0900
     27 H27       -10.6522   -4.8634   57.1473 H       1  ZINC000899027326    0.4300
     28 H28       -12.5986   -5.6590   56.1272 H       1  ZINC000899027326    0.1100
     29 H29       -13.6578   -5.7604   57.5541 H       1  ZINC000899027326    0.1100
     30 H30       -11.9039   -4.3837   55.0275 H       1  ZINC000899027326    0.1500
     31 H31       -11.3030   -3.2324   52.9362 H       1  ZINC000899027326    0.1500
     32 H32       -15.3727   -2.0674   52.4001 H       1  ZINC000899027326    0.1500
     33 H33        -9.6516    0.7065   57.3537 H       1  ZINC000899027326    0.0900
     34 H34        -9.5189    0.9423   59.1128 H       1  ZINC000899027326    0.0700
     35 H35        -8.0856    0.4737   58.1672 H       1  ZINC000899027326    0.0700
@<TRIPOS>BOND
     1     1     2    1
     2     1    24    1
     3     1    25    1
     4     1    26    1
     5     2     3    1
     6     2    22    1
     7     2     4    1
     8     4     5    2
     9     4     6   am
    10     6     7    1
    11     6    20   am
    12     7     8   am
    13     7    27    1
    14     8     9    2
    15     8    10    1
    16    10    11    1
    17    10    28    1
    18    10    29    1
    19    11    12    1
    20    12    18   ar
    21    12    13   ar
    22    13    14   ar
    23    13    30    1
    24    14    15   ar
    25    14    31    1
    26    15    16    1
    27    15    17   ar
    28    17    18   ar
    29    17    32    1
    30    18    19    1
    31    20    21    2
    32    20    22   am
    33    22    23    1
    34    23    33    1
    35    23    34    1
    36    23    35    1
@<TRIPOS>SUBSTRUCTURE
     1 ZINC000899027326        1 TEMP              0 ****  ****    0 ROOT


##########                                Name:    ZINC001231746020
##########                DOCK_Rotatable_Bonds:                   3
##########                         Heavy_Atoms:                  19
##########                    Molecular_Weight:             348.667
##########                DOCK_Rotatable_Bonds:                   3
##########                       Formal_Charge:          -0.0399997
##########                     HBond_Acceptors:                   4
##########                        HBond_Donors:                   2
##########                         Heavy_Atoms:                  19
##########                          Grid_Score:          -30.932236
##########                     Grid_vdw_energy:          -27.034489
##########                      Grid_es_energy:           -3.897748
##########           Internal_energy_repulsive:           13.531316

@<TRIPOS>MOLECULE
ZINC001231746020
 38 39 1 0 0
SMALL
USER_CHARGES


@<TRIPOS>ATOM
      1 C1        -10.5188    3.3253   64.1994 C.3     1  ZINC001231746020   -0.1500
      2 C2        -10.3858    2.0672   63.3390 C.3     1  ZINC001231746020   -0.0900
      3 H3         -9.5913    2.2083   62.6061 H       1  ZINC001231746020    0.0800
      4 C4        -10.0593    0.8883   64.2162 C.3     1  ZINC001231746020   -0.1400
      5 C5         -9.1899   -0.1737   63.5192 C.3     1  ZINC001231746020   -0.0100
      6 N6         -9.6045   -0.4571   62.1285 N.4     1  ZINC001231746020   -0.3800
      7 H7         -9.2596    0.2760   61.5271 H       1  ZINC001231746020    0.4100
      8 C8         -9.0189   -1.7364   61.7064 C.3     1  ZINC001231746020    0.0700
      9 C9         -9.4283   -2.0322   60.2865 C.ar    1  ZINC001231746020   -0.3100
     10 C10        -9.7579   -3.3232   59.9182 C.ar    1  ZINC001231746020   -0.0300
     11 C11       -10.1343   -3.5974   58.6162 C.ar    1  ZINC001231746020   -0.1600
     12 Cl12      -10.5479   -5.2189   58.1544 Cl      1  ZINC001231746020   -0.0800
     13 C13       -10.1806   -2.5749   57.6789 C.ar    1  ZINC001231746020    0.3100
     14 O14       -10.5508   -2.8414   56.3983 O.3     1  ZINC001231746020   -0.6300
     15 C15        -9.8488   -1.2799   58.0515 C.ar    1  ZINC001231746020   -0.2100
     16 Br16       -9.9104    0.1166   56.7779 Br      1  ZINC001231746020   -0.0600
     17 C17        -9.4791   -1.0107   59.3559 C.ar    1  ZINC001231746020   -0.0200
     18 C18       -11.0396   -0.5321   61.9989 C.3     1  ZINC001231746020   -0.0200
     19 C19       -11.5426    0.8401   61.5221 C.3     1  ZINC001231746020   -0.1800
     20 C20       -11.7251    1.7928   62.6102 C.3     1  ZINC001231746020    0.1000
     21 H21       -12.1107    2.7286   62.2056 H       1  ZINC001231746020    0.0700
     22 O22       -12.6677    1.2630   63.5445 O.3     1  ZINC001231746020   -0.5600
     23 H23        -9.5793    3.5103   64.7202 H       1  ZINC001231746020    0.0600
     24 H24       -11.3167    3.1841   64.9285 H       1  ZINC001231746020    0.0700
     25 H25       -10.7552    4.1778   63.5626 H       1  ZINC001231746020    0.0600
     26 H26        -9.5313    1.2464   65.0999 H       1  ZINC001231746020    0.1000
     27 H27       -10.9913    0.4204   64.5332 H       1  ZINC001231746020    0.1000
     28 H28        -8.1562    0.1721   63.5114 H       1  ZINC001231746020    0.1200
     29 H29        -9.2411   -1.0984   64.0938 H       1  ZINC001231746020    0.1200
     30 H30        -7.9322   -1.6760   61.7661 H       1  ZINC001231746020    0.1200
     31 H31        -9.3750   -2.5324   62.3604 H       1  ZINC001231746020    0.1200
     32 H32        -9.7216   -4.1184   60.6481 H       1  ZINC001231746020    0.1100
     33 H33        -9.2257   -0.0021   59.6476 H       1  ZINC001231746020    0.1100
     34 H34       -11.3045   -1.2964   61.2683 H       1  ZINC001231746020    0.1400
     35 H35       -11.4849   -0.7742   62.9638 H       1  ZINC001231746020    0.1300
     36 H36       -10.8227    1.2505   60.8141 H       1  ZINC001231746020    0.0900
     37 H37       -12.4967    0.7059   61.0125 H       1  ZINC001231746020    0.1100
     38 H38       -12.3968    0.4253   63.9444 H       1  ZINC001231746020    0.3900
@<TRIPOS>BOND
     1     1     2    1
     2     1    23    1
     3     1    24    1
     4     1    25    1
     5     2     3    1
     6     2    20    1
     7     2     4    1
     8     4     5    1
     9     4    26    1
    10     4    27    1
    11     5     6    1
    12     5    28    1
    13     5    29    1
    14     6     7    1
    15     6     8    1
    16     6    18    1
    17     8     9    1
    18     8    30    1
    19     8    31    1
    20     9    17   ar
    21     9    10   ar
    22    10    11   ar
    23    10    32    1
    24    11    12    1
    25    11    13   ar
    26    13    14    1
    27    13    15   ar
    28    15    16    1
    29    15    17   ar
    30    17    33    1
    31    18    19    1
    32    18    34    1
    33    18    35    1
    34    19    20    1
    35    19    36    1
    36    19    37    1
    37    20    21    1
    38    20    22    1
    39    22    38    1
@<TRIPOS>SUBSTRUCTURE
     1 ZINC001231746020        1 TEMP              0 ****  ****    0 ROOT


##########                                Name:    ZINC001220171460
##########                DOCK_Rotatable_Bonds:                  10
##########                         Heavy_Atoms:                  25
##########                    Molecular_Weight:             383.773
##########                DOCK_Rotatable_Bonds:                  10
##########                       Formal_Charge:           0.0199996
##########                     HBond_Acceptors:                  10
##########                        HBond_Donors:                   3
##########                         Heavy_Atoms:                  25
##########                          Grid_Score:          -30.931433
##########                     Grid_vdw_energy:          -31.473513
##########                      Grid_es_energy:            0.542080
##########           Internal_energy_repulsive:            7.545468

@<TRIPOS>MOLECULE
ZINC001220171460
 43 44 1 0 0
SMALL
USER_CHARGES


@<TRIPOS>ATOM
      1 C1         -9.7896   -3.8575   59.9197 C.3     1  ZINC001220171460    0.0200
      2 O2         -8.9206   -2.7349   59.7570 O.3     1  ZINC001220171460   -0.3100
      3 C3         -9.1817   -1.6367   60.5161 C.ar    1  ZINC001220171460    0.1000
      4 C4         -8.8469   -1.6268   61.8597 C.ar    1  ZINC001220171460   -0.1500
      5 C5         -9.1128   -0.5093   62.6314 C.ar    1  ZINC001220171460   -0.0600
      6 Cl6        -8.6916   -0.4992   64.3155 Cl      1  ZINC001220171460   -0.0400
      7 C7         -9.7142    0.6014   62.0626 C.ar    1  ZINC001220171460    0.1000
      8 F8         -9.9718    1.6905   62.8192 F       1  ZINC001220171460   -0.1200
      9 C9        -10.0511    0.5971   60.7201 C.ar    1  ZINC001220171460   -0.1200
     10 C10        -9.7813   -0.5183   59.9415 C.ar    1  ZINC001220171460    0.1800
     11 N11       -10.1217   -0.5246   58.5815 N.am    1  ZINC001220171460   -0.6700
     12 C12        -9.4976    0.3098   57.7267 C.2     1  ZINC001220171460    0.7100
     13 O13        -8.6392    1.0681   58.1350 O.2     1  ZINC001220171460   -0.5700
     14 N14        -9.8248    0.3038   56.4193 N.am    1  ZINC001220171460   -0.7400
     15 C15        -9.1476    1.2120   55.4904 C.3     1  ZINC001220171460    0.1400
     16 C16        -9.7169    1.0201   54.0833 C.3     1  ZINC001220171460   -0.1400
     17 C17        -8.7619    1.6354   53.0585 C.3     1  ZINC001220171460    0.0500
     18 H18        -7.8956    2.0513   53.5730 H       1  ZINC001220171460    0.1000
     19 N19        -8.3206    0.5986   52.1161 N.3     1  ZINC001220171460   -0.6500
     20 C20        -6.9277    0.8193   51.7049 C.3     1  ZINC001220171460    0.0100
     21 C21        -6.3465   -0.1196   50.6459 C.3     1  ZINC001220171460   -0.2000
     22 C22        -6.6830    1.3282   50.2829 C.3     1  ZINC001220171460   -0.1600
     23 C23        -9.4825    2.7471   52.2931 C.3     1  ZINC001220171460    0.4600
     24 F24        -9.9743    3.6935   53.1983 F       1  ZINC001220171460   -0.1800
     25 F25        -8.5864    3.3645   51.4139 F       1  ZINC001220171460   -0.1800
     26 F26       -10.5458    2.1997   51.5670 F       1  ZINC001220171460   -0.1700
     27 H27        -9.7509   -4.2002   60.9537 H       1  ZINC001220171460    0.0600
     28 H28       -10.8102   -3.5659   59.6716 H       1  ZINC001220171460    0.0600
     29 H29        -9.4708   -4.6628   59.2578 H       1  ZINC001220171460    0.1100
     30 H30        -8.3784   -2.4917   62.3057 H       1  ZINC001220171460    0.1500
     31 H31       -10.5201    1.4638   60.2780 H       1  ZINC001220171460    0.1800
     32 H32       -10.8065   -1.1295   58.2557 H       1  ZINC001220171460    0.4200
     33 H33       -10.5087   -0.3021   56.0933 H       1  ZINC001220171460    0.4000
     34 H34        -9.3061    2.2422   55.8091 H       1  ZINC001220171460    0.0800
     35 H35        -8.0796    0.9942   55.4831 H       1  ZINC001220171460    0.0700
     36 H36        -9.8313   -0.0446   53.8797 H       1  ZINC001220171460    0.1000
     37 H37       -10.6883    1.5096   54.0145 H       1  ZINC001220171460    0.1000
     38 H38        -8.4396   -0.3226   52.5101 H       1  ZINC001220171460    0.3600
     39 H39        -6.2565    1.1720   52.4881 H       1  ZINC001220171460    0.1200
     40 H40        -5.2928   -0.3848   50.7322 H       1  ZINC001220171460    0.1000
     41 H41        -6.9977   -0.9010   50.2542 H       1  ZINC001220171460    0.1000
     42 H42        -7.5556    1.4991   49.6525 H       1  ZINC001220171460    0.1000
     43 H43        -5.8507    2.0153   50.1305 H       1  ZINC001220171460    0.1000
@<TRIPOS>BOND
     1     1     2    1
     2     1    27    1
     3     1    28    1
     4     1    29    1
     5     2     3    1
     6     3    10   ar
     7     3     4   ar
     8     4     5   ar
     9     4    30    1
    10     5     6    1
    11     5     7   ar
    12     7     8    1
    13     7     9   ar
    14     9    10   ar
    15     9    31    1
    16    10    11    1
    17    11    12   am
    18    11    32    1
    19    12    13    2
    20    12    14   am
    21    14    15    1
    22    14    33    1
    23    15    16    1
    24    15    34    1
    25    15    35    1
    26    16    17    1
    27    16    36    1
    28    16    37    1
    29    17    18    1
    30    17    19    1
    31    17    23    1
    32    19    20    1
    33    19    38    1
    34    20    22    1
    35    20    21    1
    36    20    39    1
    37    21    22    1
    38    21    40    1
    39    21    41    1
    40    22    42    1
    41    22    43    1
    42    23    24    1
    43    23    25    1
    44    23    26    1
@<TRIPOS>SUBSTRUCTURE
     1 ZINC001220171460        1 TEMP              0 ****  ****    0 ROOT


##########                                Name:    ZINC000866717058
##########                DOCK_Rotatable_Bonds:                   7
##########                         Heavy_Atoms:                  25
##########                    Molecular_Weight:             380.388
##########                DOCK_Rotatable_Bonds:                   7
##########                       Formal_Charge:                0.04
##########                     HBond_Acceptors:                  10
##########                        HBond_Donors:                   1
##########                         Heavy_Atoms:                  25
##########                          Grid_Score:          -30.914093
##########                     Grid_vdw_energy:          -30.452221
##########                      Grid_es_energy:           -0.461871
##########           Internal_energy_repulsive:            8.230249

@<TRIPOS>MOLECULE
ZINC000866717058
 44 45 1 0 0
SMALL
USER_CHARGES


@<TRIPOS>ATOM
      1 C1        -13.2314   -2.2796   59.5660 C.3     1  ZINC000866717058   -0.1100
      2 C2        -11.8529   -2.0524   60.1306 C.ar    1  ZINC000866717058    0.2400
      3 N3        -11.7139   -1.4199   61.2767 N.ar    1  ZINC000866717058   -0.5500
      4 C4        -10.5227   -1.1976   61.8111 C.ar    1  ZINC000866717058    0.3500
      5 O5        -10.4331   -0.5420   62.9936 O.3     1  ZINC000866717058   -0.2800
      6 C6        -10.2202    0.8700   62.9380 C.3     1  ZINC000866717058    0.0500
      7 H7         -9.5290    1.1016   62.1276 H       1  ZINC000866717058    0.1300
      8 C8        -11.5538    1.5774   62.6888 C.3     1  ZINC000866717058   -0.1700
      9 C9         -9.6288    1.3492   64.2652 C.3     1  ZINC000866717058    0.4600
     10 F10       -10.4439    0.9236   65.3196 F       1  ZINC000866717058   -0.1700
     11 F11        -8.3452    0.8158   64.4235 F       1  ZINC000866717058   -0.1700
     12 F12        -9.5566    2.7464   64.2663 F       1  ZINC000866717058   -0.1700
     13 C13        -9.3619   -1.6279   61.1761 C.ar    1  ZINC000866717058   -0.1900
     14 C14        -9.4594   -2.2954   59.9723 C.ar    1  ZINC000866717058    0.0000
     15 C15       -10.7359   -2.5196   59.4364 C.ar    1  ZINC000866717058   -0.2300
     16 C16       -10.8951   -3.2292   58.1518 C.2     1  ZINC000866717058    0.5800
     17 O17       -10.9031   -4.4448   58.1257 O.2     1  ZINC000866717058   -0.5200
     18 N18       -11.0314   -2.5296   57.0078 N.am    1  ZINC000866717058   -0.7400
     19 C19       -11.1876   -3.2340   55.7328 C.3     1  ZINC000866717058    0.1400
     20 C20       -11.9641   -2.3507   54.7542 C.3     1  ZINC000866717058   -0.5700
     21 H21       -12.9362   -2.0807   55.1666 H       1  ZINC000866717058    0.1500
     22 C22       -11.1488   -1.0825   54.3916 C.3     1  ZINC000866717058   -0.1100
     23 C23       -11.7483   -0.5323   53.0855 C.3     1  ZINC000866717058   -0.1200
     24 C24       -11.9185   -1.6974   52.0904 C.3     1  ZINC000866717058   -0.5900
     25 S25       -12.1541   -3.1860   53.1339 S.o2    1  ZINC000866717058    2.3700
     26 O26       -11.0646   -4.0767   52.9364 O.2     1  ZINC000866717058   -0.9200
     27 O27       -13.4883   -3.6539   52.9923 O.2     1  ZINC000866717058   -0.9300
     28 H28       -13.5740   -3.2788   59.8348 H       1  ZINC000866717058    0.0900
     29 H29       -13.9180   -1.5380   59.9742 H       1  ZINC000866717058    0.0700
     30 H30       -13.1993   -2.1864   58.4804 H       1  ZINC000866717058    0.1100
     31 H31       -11.3913    2.6544   62.6464 H       1  ZINC000866717058    0.0900
     32 H32       -11.9750    1.2361   61.7433 H       1  ZINC000866717058    0.0900
     33 H33       -12.2448    1.3458   63.4992 H       1  ZINC000866717058    0.0800
     34 H34        -8.3953   -1.4412   61.6202 H       1  ZINC000866717058    0.1600
     35 H35        -8.5748   -2.6402   59.4575 H       1  ZINC000866717058    0.1500
     36 H36       -11.0262   -1.5599   57.0289 H       1  ZINC000866717058    0.4000
     37 H37       -10.2045   -3.4579   55.3187 H       1  ZINC000866717058    0.1000
     38 H38       -11.7336   -4.1632   55.8954 H       1  ZINC000866717058    0.1000
     39 H39       -11.2393   -0.3410   55.1853 H       1  ZINC000866717058    0.1100
     40 H40       -10.1012   -1.3427   54.2409 H       1  ZINC000866717058    0.0900
     41 H41       -12.7188   -0.0801   53.2897 H       1  ZINC000866717058    0.0900
     42 H42       -11.0790    0.2165   52.6621 H       1  ZINC000866717058    0.1000
     43 H43       -12.7954   -1.5349   51.4637 H       1  ZINC000866717058    0.1400
     44 H44       -11.0258   -1.8020   51.4738 H       1  ZINC000866717058    0.1400
@<TRIPOS>BOND
     1     1     2    1
     2     1    28    1
     3     1    29    1
     4     1    30    1
     5     2    15   ar
     6     2     3   ar
     7     3     4   ar
     8     4     5    1
     9     4    13   ar
    10     5     6    1
    11     6     7    1
    12     6     8    1
    13     6     9    1
    14     8    31    1
    15     8    32    1
    16     8    33    1
    17     9    10    1
    18     9    11    1
    19     9    12    1
    20    13    14   ar
    21    13    34    1
    22    14    15   ar
    23    14    35    1
    24    15    16    1
    25    16    17    2
    26    16    18   am
    27    18    19    1
    28    18    36    1
    29    19    20    1
    30    19    37    1
    31    19    38    1
    32    20    21    1
    33    20    25    1
    34    20    22    1
    35    22    23    1
    36    22    39    1
    37    22    40    1
    38    23    24    1
    39    23    41    1
    40    23    42    1
    41    24    25    1
    42    24    43    1
    43    24    44    1
    44    25    26    2
    45    25    27    2
@<TRIPOS>SUBSTRUCTURE
     1 ZINC000866717058        1 TEMP              0 ****  ****    0 ROOT


##########                                Name:    ZINC000274225049
##########                DOCK_Rotatable_Bonds:                   6
##########                         Heavy_Atoms:                  25
##########                    Molecular_Weight:             380.895
##########                DOCK_Rotatable_Bonds:                   6
##########                       Formal_Charge:           0.0200006
##########                     HBond_Acceptors:                   7
##########                        HBond_Donors:                   2
##########                         Heavy_Atoms:                  25
##########                          Grid_Score:          -30.873058
##########                     Grid_vdw_energy:          -28.617090
##########                      Grid_es_energy:           -2.255969
##########           Internal_energy_repulsive:           10.966092

@<TRIPOS>MOLECULE
ZINC000274225049
 46 48 1 0 0
SMALL
USER_CHARGES


@<TRIPOS>ATOM
      1 C1         -9.0991   -2.8388   59.9480 C.3     1  ZINC000274225049   -0.1600
      2 C2         -9.7460   -1.9280   58.9027 C.3     1  ZINC000274225049    0.2000
      3 H3         -9.5617   -2.3301   57.9065 H       1  ZINC000274225049    0.1100
      4 N4         -9.1694   -0.5849   59.0014 N.am    1  ZINC000274225049   -0.7400
      5 C5         -8.9945    0.1568   57.8898 C.2     1  ZINC000274225049    0.7100
      6 O6         -9.3166   -0.2883   56.8052 O.2     1  ZINC000274225049   -0.5800
      7 N7         -8.4626    1.3918   57.9805 N.am    1  ZINC000274225049   -0.7500
      8 C8         -8.2741    2.1987   56.7724 C.3     1  ZINC000274225049    0.1500
      9 C9         -7.2221    3.2774   57.0386 C.3     1  ZINC000274225049   -0.1000
     10 H10        -7.5265    3.8948   57.8838 H       1  ZINC000274225049    0.1000
     11 C11        -7.0362    4.1524   55.7866 C.3     1  ZINC000274225049   -0.1100
     12 C12        -5.7555    4.9936   55.9571 C.3     1  ZINC000274225049   -0.5900
     13 S13        -4.6779    4.0031   57.0541 S.o2    1  ZINC000274225049    2.3900
     14 O14        -3.5583    3.5337   56.3156 O.2     1  ZINC000274225049   -0.9300
     15 O15        -4.4777    4.7028   58.2746 O.2     1  ZINC000274225049   -0.9300
     16 C16        -5.8486    2.6194   57.3292 C.3     1  ZINC000274225049   -0.5900
     17 C17       -11.2311   -1.8566   59.1487 C.ar    1  ZINC000274225049   -0.0700
     18 C18       -12.0951   -2.7708   58.5228 C.ar    1  ZINC000274225049   -0.0300
     19 C19       -11.6041   -3.7657   57.6600 C.ar    1  ZINC000274225049   -0.1100
     20 C20       -12.4708   -4.6343   57.0716 C.ar    1  ZINC000274225049   -0.1100
     21 C21       -13.8415   -4.5533   57.3112 C.ar    1  ZINC000274225049   -0.1100
     22 C22       -14.3529   -3.6031   58.1406 C.ar    1  ZINC000274225049   -0.1000
     23 C23       -13.4889   -2.6885   58.7664 C.ar    1  ZINC000274225049   -0.0400
     24 C24       -13.9799   -1.6935   59.6301 C.ar    1  ZINC000274225049   -0.0300
     25 Cl25      -15.6830   -1.5733   59.9445 Cl      1  ZINC000274225049   -0.0600
     26 C26       -13.1115   -0.8244   60.2192 C.ar    1  ZINC000274225049   -0.1000
     27 C27       -11.7413   -0.9094   59.9830 C.ar    1  ZINC000274225049   -0.1000
     28 H28        -8.0250   -2.8906   59.7701 H       1  ZINC000274225049    0.0700
     29 H29        -9.2834   -2.4367   60.9443 H       1  ZINC000274225049    0.0700
     30 H30        -9.5281   -3.8382   59.8745 H       1  ZINC000274225049    0.0800
     31 H31        -8.9135   -0.2294   59.8669 H       1  ZINC000274225049    0.4000
     32 H32        -8.2045    1.7464   58.8457 H       1  ZINC000274225049    0.4000
     33 H33        -7.9394    1.5583   55.9563 H       1  ZINC000274225049    0.0800
     34 H34        -9.2179    2.6710   56.5000 H       1  ZINC000274225049    0.0800
     35 H35        -6.9427    3.5170   54.9059 H       1  ZINC000274225049    0.0900
     36 H36        -7.8956    4.8128   55.6701 H       1  ZINC000274225049    0.0900
     37 H37        -5.2731    5.1485   54.9920 H       1  ZINC000274225049    0.1400
     38 H38        -5.9907    5.9511   56.4217 H       1  ZINC000274225049    0.1400
     39 H39        -5.7970    2.2680   58.3596 H       1  ZINC000274225049    0.1400
     40 H40        -5.6554    1.8046   56.6313 H       1  ZINC000274225049    0.1400
     41 H41       -10.5444   -3.8402   57.4647 H       1  ZINC000274225049    0.1300
     42 H42       -12.0910   -5.3977   56.4087 H       1  ZINC000274225049    0.1300
     43 H43       -14.5077   -5.2548   56.8312 H       1  ZINC000274225049    0.1300
     44 H44       -15.4172   -3.5522   58.3166 H       1  ZINC000274225049    0.1300
     45 H45       -13.4908   -0.0606   60.8819 H       1  ZINC000274225049    0.1300
     46 H46       -11.0745   -0.2081   60.4624 H       1  ZINC000274225049    0.1300
@<TRIPOS>BOND
     1     1     2    1
     2     1    28    1
     3     1    29    1
     4     1    30    1
     5     2     3    1
     6     2     4    1
     7     2    17    1
     8     4     5   am
     9     4    31    1
    10     5     6    2
    11     5     7   am
    12     7     8    1
    13     7    32    1
    14     8     9    1
    15     8    33    1
    16     8    34    1
    17     9    10    1
    18     9    16    1
    19     9    11    1
    20    11    12    1
    21    11    35    1
    22    11    36    1
    23    12    13    1
    24    12    37    1
    25    12    38    1
    26    13    14    2
    27    13    15    2
    28    13    16    1
    29    16    39    1
    30    16    40    1
    31    17    27   ar
    32    17    18   ar
    33    18    23   ar
    34    18    19   ar
    35    19    20   ar
    36    19    41    1
    37    20    21   ar
    38    20    42    1
    39    21    22   ar
    40    21    43    1
    41    22    23   ar
    42    22    44    1
    43    23    24   ar
    44    24    25    1
    45    24    26   ar
    46    26    27   ar
    47    26    45    1
    48    27    46    1
@<TRIPOS>SUBSTRUCTURE
     1 ZINC000274225049        1 TEMP              0 ****  ****    0 ROOT


##########                                Name:    ZINC001707162141
##########                DOCK_Rotatable_Bonds:                   9
##########                         Heavy_Atoms:                  25
##########                    Molecular_Weight:               344.5
##########                DOCK_Rotatable_Bonds:                   9
##########                       Formal_Charge:          -0.0299999
##########                     HBond_Acceptors:                   5
##########                        HBond_Donors:                   1
##########                         Heavy_Atoms:                  25
##########                          Grid_Score:          -30.849693
##########                     Grid_vdw_energy:          -29.985867
##########                      Grid_es_energy:           -0.863826
##########           Internal_energy_repulsive:           79.739647

@<TRIPOS>MOLECULE
ZINC001707162141
 57 59 1 0 0
SMALL
USER_CHARGES


@<TRIPOS>ATOM
      1 C1        -15.5472   -2.5485   52.0864 C.3     1  ZINC001707162141   -0.1800
      2 C2        -14.2454   -1.7446   52.0926 C.3     1  ZINC001707162141    0.1700
      3 H3        -14.3238   -0.9318   52.8146 H       1  ZINC001707162141    0.1000
      4 N4        -13.1286   -2.6236   52.4641 N.3     1  ZINC001707162141   -0.6400
      5 C5        -12.2332   -1.9610   53.4218 C.3     1  ZINC001707162141    0.0700
      6 C6        -11.9981   -2.8814   54.6211 C.3     1  ZINC001707162141    0.1500
      7 H7        -11.4609   -3.7730   54.2977 H       1  ZINC001707162141    0.0700
      8 C8        -13.3443   -3.2828   55.2321 C.3     1  ZINC001707162141   -0.1200
      9 C9        -13.1001   -4.0875   56.5107 C.3     1  ZINC001707162141   -0.0900
     10 H10       -12.5058   -4.9706   56.2758 H       1  ZINC001707162141    0.0700
     11 C11       -14.4421   -4.5197   57.1051 C.3     1  ZINC001707162141   -0.1500
     12 C12       -12.3484   -3.2220   57.5245 C.3     1  ZINC001707162141   -0.1300
     13 C13       -10.9909   -2.8200   56.9395 C.3     1  ZINC001707162141    0.1100
     14 N14       -11.2094   -2.1732   55.6384 N.am    1  ZINC001707162141   -0.6100
     15 C15       -10.6965   -0.9532   55.3833 C.2     1  ZINC001707162141    0.5100
     16 O16       -10.8840   -0.4300   54.3053 O.2     1  ZINC001707162141   -0.4800
     17 C17        -9.8902   -0.2393   56.4374 C.3     1  ZINC001707162141   -0.1400
     18 C18        -9.2399    1.0039   55.8270 C.3     1  ZINC001707162141   -0.0900
     19 C19        -8.4066    1.7188   56.8926 C.3     1  ZINC001707162141   -0.0900
     20 C20        -7.7884    2.9833   56.2930 C.3     1  ZINC001707162141   -0.1500
     21 C21        -6.2675    3.0171   56.1295 C.3     1  ZINC001707162141   -0.1800
     22 C22        -6.9390    3.8603   57.2153 C.3     1  ZINC001707162141   -0.1800
     23 C23       -14.0006   -1.1745   50.7191 C.ar    1  ZINC001707162141    0.3500
     24 N24       -13.6287    0.0846   50.6043 N.ar    1  ZINC001707162141   -0.5000
     25 C25       -13.3994    0.6179   49.4151 C.ar    1  ZINC001707162141    0.1500
     26 C26       -13.5664   -0.1631   48.2824 C.ar    1  ZINC001707162141   -0.2400
     27 C27       -13.9639   -1.4812   48.4432 C.ar    1  ZINC001707162141    0.1500
     28 N28       -14.1694   -1.9469   49.6647 N.ar    1  ZINC001707162141   -0.5200
     29 H29       -15.7242   -2.9608   53.0798 H       1  ZINC001707162141    0.0600
     30 H30       -16.3757   -1.8963   51.8107 H       1  ZINC001707162141    0.0600
     31 H31       -15.4687   -3.3613   51.3644 H       1  ZINC001707162141    0.0600
     32 H32       -13.4656   -3.5008   52.8315 H       1  ZINC001707162141    0.3300
     33 H33       -11.2808   -1.7437   52.9383 H       1  ZINC001707162141    0.1000
     34 H34       -12.6888   -1.0309   53.7615 H       1  ZINC001707162141    0.0200
     35 H35       -13.9174   -2.3867   55.4701 H       1  ZINC001707162141    0.0700
     36 H36       -13.9002   -3.8920   54.5193 H       1  ZINC001707162141    0.0700
     37 H37       -15.0363   -3.6368   57.3406 H       1  ZINC001707162141    0.0500
     38 H38       -14.9776   -5.1363   56.3832 H       1  ZINC001707162141    0.0600
     39 H39       -14.2682   -5.0939   58.0151 H       1  ZINC001707162141    0.0600
     40 H40       -12.1954   -3.7879   58.4434 H       1  ZINC001707162141    0.0700
     41 H41       -12.9309   -2.3265   57.7410 H       1  ZINC001707162141    0.0700
     42 H42       -10.3727   -3.7078   56.8070 H       1  ZINC001707162141    0.0600
     43 H43       -10.4938   -2.1236   57.6148 H       1  ZINC001707162141    0.0800
     44 H44       -10.5451    0.0582   57.2563 H       1  ZINC001707162141    0.0800
     45 H45        -9.1153   -0.9061   56.8156 H       1  ZINC001707162141    0.0800
     46 H46        -8.5949    0.7076   54.9997 H       1  ZINC001707162141    0.0700
     47 H47       -10.0152    1.6766   55.4604 H       1  ZINC001707162141    0.0700
     48 H48        -9.0462    1.9901   57.7324 H       1  ZINC001707162141    0.0600
     49 H49        -7.6137    1.0558   57.2390 H       1  ZINC001707162141    0.0600
     50 H50        -8.3878    3.4850   55.5333 H       1  ZINC001707162141    0.1000
     51 H51        -5.7074    2.1384   56.4490 H       1  ZINC001707162141    0.0900
     52 H52        -5.8661    3.5409   55.2619 H       1  ZINC001707162141    0.0900
     53 H53        -6.9795    4.9386   57.0622 H       1  ZINC001707162141    0.0900
     54 H54        -6.8207    3.5362   58.2492 H       1  ZINC001707162141    0.0900
     55 H55       -13.0909    1.6492   49.3280 H       1  ZINC001707162141    0.1600
     56 H56       -13.3906    0.2452   47.2981 H       1  ZINC001707162141    0.1400
     57 H57       -14.1043   -2.1192   47.5832 H       1  ZINC001707162141    0.1600
@<TRIPOS>BOND
     1     1     2    1
     2     1    29    1
     3     1    30    1
     4     1    31    1
     5     2     3    1
     6     2     4    1
     7     2    23    1
     8     4     5    1
     9     4    32    1
    10     5     6    1
    11     5    33    1
    12     5    34    1
    13     6     7    1
    14     6    14    1
    15     6     8    1
    16     8     9    1
    17     8    35    1
    18     8    36    1
    19     9    10    1
    20     9    11    1
    21     9    12    1
    22    11    37    1
    23    11    38    1
    24    11    39    1
    25    12    13    1
    26    12    40    1
    27    12    41    1
    28    13    14    1
    29    13    42    1
    30    13    43    1
    31    14    15   am
    32    15    16    2
    33    15    17    1
    34    17    18    1
    35    17    44    1
    36    17    45    1
    37    18    19    1
    38    18    46    1
    39    18    47    1
    40    19    20    1
    41    19    48    1
    42    19    49    1
    43    20    22    1
    44    20    21    1
    45    20    50    1
    46    21    22    1
    47    21    51    1
    48    21    52    1
    49    22    53    1
    50    22    54    1
    51    23    28   ar
    52    23    24   ar
    53    24    25   ar
    54    25    26   ar
    55    25    55    1
    56    26    27   ar
    57    26    56    1
    58    27    28   ar
    59    27    57    1
@<TRIPOS>SUBSTRUCTURE
     1 ZINC001707162141        1 TEMP              0 ****  ****    0 ROOT


##########                                Name:    ZINC001053433946
##########                DOCK_Rotatable_Bonds:                   6
##########                         Heavy_Atoms:                  24
##########                    Molecular_Weight:             337.419
##########                DOCK_Rotatable_Bonds:                   6
##########                       Formal_Charge:               -0.02
##########                     HBond_Acceptors:                   7
##########                        HBond_Donors:                   2
##########                         Heavy_Atoms:                  24
##########                          Grid_Score:          -30.839277
##########                     Grid_vdw_energy:          -30.669296
##########                      Grid_es_energy:           -0.169982
##########           Internal_energy_repulsive:           14.879923

@<TRIPOS>MOLECULE
ZINC001053433946
 51 54 1 0 0
SMALL
USER_CHARGES


@<TRIPOS>ATOM
      1 N1        -10.3200   -3.2914   60.6305 N.am    1  ZINC001053433946   -0.8300
      2 C2         -9.5641   -3.3496   59.5162 C.2     1  ZINC001053433946    0.5600
      3 O3         -8.7871   -4.2672   59.3576 O.2     1  ZINC001053433946   -0.5500
      4 C4         -9.6844   -2.2744   58.4671 C.3     1  ZINC001053433946   -0.1600
      5 H5         -8.7776   -1.7008   58.2757 H       1  ZINC001053433946    0.1400
      6 C6        -11.0216   -1.5386   58.3597 C.3     1  ZINC001053433946   -0.1300
      7 C7        -10.6126   -2.5451   57.2813 C.3     1  ZINC001053433946   -0.1700
      8 H8        -10.3167   -2.1493   56.3098 H       1  ZINC001053433946    0.1400
      9 C9        -11.3373   -3.8660   57.2516 C.2     1  ZINC001053433946    0.5400
     10 O10       -10.7431   -4.8898   57.5154 O.2     1  ZINC001053433946   -0.5200
     11 N11       -12.6459   -3.9096   56.9318 N.am    1  ZINC001053433946   -0.6100
     12 C12       -13.3762   -5.1863   56.8957 C.3     1  ZINC001053433946    0.0700
     13 C13       -14.0875   -5.3080   55.5440 C.3     1  ZINC001053433946    0.0500
     14 O14       -14.8995   -4.1493   55.3296 O.3     1  ZINC001053433946   -0.3400
     15 C15       -14.1697   -2.9255   55.3150 C.3     1  ZINC001053433946    0.0800
     16 C16       -13.3309   -2.7209   54.0464 C.3     1  ZINC001053433946   -0.0100
     17 N17       -14.5205   -2.0338   53.4944 N.3     1  ZINC001053433946   -0.4700
     18 C18       -14.1361   -0.8126   52.7739 C.3     1  ZINC001053433946    0.0200
     19 C19       -14.5446   -0.9372   51.3047 C.3     1  ZINC001053433946   -0.1200
     20 H20       -15.3062   -1.7103   51.2028 H       1  ZINC001053433946    0.0800
     21 C21       -15.1049    0.4012   50.8139 C.3     1  ZINC001053433946   -0.1200
     22 C22       -15.4375    0.2870   49.3231 C.3     1  ZINC001053433946   -0.1600
     23 C23       -14.1793   -0.1315   48.5581 C.3     1  ZINC001053433946    0.0600
     24 O24       -13.6925   -1.3677   49.0847 O.3     1  ZINC001053433946   -0.3800
     25 C25       -13.3212   -1.3101   50.4634 C.3     1  ZINC001053433946    0.0700
     26 C26       -14.9975   -1.7164   54.8595 C.3     1  ZINC001053433946    0.0200
     27 C27       -13.3919   -2.6796   56.6133 C.3     1  ZINC001053433946    0.1000
     28 H28       -10.2416   -3.9829   61.3062 H       1  ZINC001053433946    0.4000
     29 H29       -10.9394   -2.5560   60.7586 H       1  ZINC001053433946    0.4000
     30 H30       -11.8143   -1.8322   59.0479 H       1  ZINC001053433946    0.1100
     31 H31       -10.9944   -0.4810   58.0972 H       1  ZINC001053433946    0.1200
     32 H32       -12.6749   -6.0122   57.0154 H       1  ZINC001053433946    0.1000
     33 H33       -14.1121   -5.2093   57.6995 H       1  ZINC001053433946    0.0800
     34 H34       -13.3463   -5.3850   54.7486 H       1  ZINC001053433946    0.0600
     35 H35       -14.7166   -6.1982   55.5429 H       1  ZINC001053433946    0.1100
     36 H36       -12.4715   -2.0657   54.1885 H       1  ZINC001053433946    0.0800
     37 H37       -13.0802   -3.6480   53.5308 H       1  ZINC001053433946    0.0900
     38 H38       -14.6393    0.0457   53.2194 H       1  ZINC001053433946    0.0500
     39 H39       -13.0568   -0.6760   52.8407 H       1  ZINC001053433946    0.0800
     40 H40       -16.0093    0.6444   51.3717 H       1  ZINC001053433946    0.0700
     41 H41       -14.3615    1.1843   50.9627 H       1  ZINC001053433946    0.0700
     42 H42       -16.2169   -0.4615   49.1800 H       1  ZINC001053433946    0.0700
     43 H43       -15.7851    1.2514   48.9525 H       1  ZINC001053433946    0.0700
     44 H44       -14.4203   -0.2559   47.5024 H       1  ZINC001053433946    0.0900
     45 H45       -13.4142    0.6369   48.6684 H       1  ZINC001053433946    0.0500
     46 H46       -12.5449   -0.5572   50.5997 H       1  ZINC001053433946    0.0500
     47 H47       -12.9438   -2.2828   50.7792 H       1  ZINC001053433946    0.1000
     48 H48       -16.0720   -1.8448   54.9907 H       1  ZINC001053433946    0.1000
     49 H49       -14.6317   -0.7638   55.2427 H       1  ZINC001053433946    0.0900
     50 H50       -14.0863   -2.4435   57.4196 H       1  ZINC001053433946    0.0800
     51 H51       -12.6941   -1.8538   56.4738 H       1  ZINC001053433946    0.1000
@<TRIPOS>BOND
     1     1     2   am
     2     1    28    1
     3     1    29    1
     4     2     3    2
     5     2     4    1
     6     4     5    1
     7     4     7    1
     8     4     6    1
     9     6     7    1
    10     6    30    1
    11     6    31    1
    12     7     8    1
    13     7     9    1
    14     9    10    2
    15     9    11   am
    16    11    27    1
    17    11    12    1
    18    12    13    1
    19    12    32    1
    20    12    33    1
    21    13    14    1
    22    13    34    1
    23    13    35    1
    24    14    15    1
    25    15    26    1
    26    15    16    1
    27    15    27    1
    28    16    17    1
    29    16    36    1
    30    16    37    1
    31    17    18    1
    32    17    26    1
    33    18    19    1
    34    18    38    1
    35    18    39    1
    36    19    20    1
    37    19    25    1
    38    19    21    1
    39    21    22    1
    40    21    40    1
    41    21    41    1
    42    22    23    1
    43    22    42    1
    44    22    43    1
    45    23    24    1
    46    23    44    1
    47    23    45    1
    48    24    25    1
    49    25    46    1
    50    25    47    1
    51    26    48    1
    52    26    49    1
    53    27    50    1
    54    27    51    1
@<TRIPOS>SUBSTRUCTURE
     1 ZINC001053433946        1 TEMP              0 ****  ****    0 ROOT


##########                                Name:    ZINC000281092425
##########                DOCK_Rotatable_Bonds:                   8
##########                         Heavy_Atoms:                  23
##########                    Molecular_Weight:             332.304
##########                DOCK_Rotatable_Bonds:                   8
##########                       Formal_Charge:         2.98023e-08
##########                     HBond_Acceptors:                   9
##########                        HBond_Donors:                   2
##########                         Heavy_Atoms:                  23
##########                          Grid_Score:          -30.832359
##########                     Grid_vdw_energy:          -28.379702
##########                      Grid_es_energy:           -2.452657
##########           Internal_energy_repulsive:           14.538628

@<TRIPOS>MOLECULE
ZINC000281092425
 41 42 1 0 0
SMALL
USER_CHARGES


@<TRIPOS>ATOM
      1 O1        -10.0416   -5.2587   58.4553 O.2     1  ZINC000281092425   -0.1800
      2 N2        -10.8458   -4.3449   58.4974 N.pl3   1  ZINC000281092425    0.0400
      3 O3        -11.8620   -4.3965   57.8280 O.2     1  ZINC000281092425   -0.1500
      4 C4        -10.5909   -3.1744   59.3667 C.ar    1  ZINC000281092425   -0.1200
      5 C5         -9.4378   -3.1167   60.1257 C.ar    1  ZINC000281092425    0.0200
      6 C6         -9.1962   -2.0258   60.9383 C.ar    1  ZINC000281092425   -0.2200
      7 C7        -10.1130   -0.9834   60.9937 C.ar    1  ZINC000281092425    0.3000
      8 N8         -9.8690    0.1197   61.8148 N.pl3   1  ZINC000281092425   -0.7200
      9 C9        -10.7570    0.4021   62.9453 C.3     1  ZINC000281092425    0.1200
     10 C10       -10.3143    1.6964   63.6307 C.3     1  ZINC000281092425   -0.0900
     11 H11        -9.6387    2.2431   62.9729 H       1  ZINC000281092425    0.0900
     12 C12       -11.5413    2.5590   63.9326 C.3     1  ZINC000281092425    0.0800
     13 O13       -12.3777    1.8845   64.8747 O.3     1  ZINC000281092425   -0.5700
     14 C14        -9.5929    1.3604   64.9375 C.3     1  ZINC000281092425   -0.1100
     15 H15       -10.2291    0.7581   65.5860 H       1  ZINC000281092425    0.0900
     16 C16        -8.2478    0.6370   64.6562 C.3     1  ZINC000281092425   -0.1600
     17 C17        -7.4268    1.0464   65.9048 C.3     1  ZINC000281092425    0.0500
     18 O18        -7.8232    2.3979   66.1877 O.3     1  ZINC000281092425   -0.3900
     19 C19        -9.1345    2.6464   65.6582 C.3     1  ZINC000281092425    0.0700
     20 C20       -11.2720   -1.0396   60.2314 C.ar    1  ZINC000281092425   -0.2800
     21 C21       -11.5080   -2.1334   59.4139 C.ar    1  ZINC000281092425    0.2300
     22 O22       -12.6413   -2.1913   58.6661 O.3     1  ZINC000281092425   -0.2900
     23 C23       -13.8509   -2.5320   59.3464 C.3     1  ZINC000281092425    0.4100
     24 F24       -14.4451   -1.3703   59.8512 F       1  ZINC000281092425   -0.1900
     25 F25       -14.7290   -3.1546   58.4529 F       1  ZINC000281092425   -0.1900
     26 H26        -8.7240   -3.9261   60.0838 H       1  ZINC000281092425    0.1600
     27 H27        -8.2945   -1.9835   61.5311 H       1  ZINC000281092425    0.1500
     28 H28        -9.1116    0.6989   61.6367 H       1  ZINC000281092425    0.4100
     29 H29       -11.7797    0.5132   62.5849 H       1  ZINC000281092425    0.0800
     30 H30       -10.7104   -0.4210   63.6583 H       1  ZINC000281092425    0.0800
     31 H31       -11.2206    3.5136   64.3497 H       1  ZINC000281092425    0.0500
     32 H32       -12.0983    2.7335   63.0120 H       1  ZINC000281092425    0.0500
     33 H33       -11.9463    1.6962   65.7195 H       1  ZINC000281092425    0.3800
     34 H34        -8.3844   -0.4436   64.6128 H       1  ZINC000281092425    0.0800
     35 H35        -7.7850    1.0096   63.7423 H       1  ZINC000281092425    0.0800
     36 H36        -7.6690    0.3973   66.7463 H       1  ZINC000281092425    0.0600
     37 H37        -6.3598    1.0027   65.6870 H       1  ZINC000281092425    0.0900
     38 H38        -9.0960    3.4719   64.9474 H       1  ZINC000281092425    0.0800
     39 H39        -9.8213    2.8874   66.4696 H       1  ZINC000281092425    0.0700
     40 H40       -11.9863   -0.2307   60.2724 H       1  ZINC000281092425    0.1500
     41 H41       -13.6263   -3.2118   60.1683 H       1  ZINC000281092425    0.1900
@<TRIPOS>BOND
     1     1     2    2
     2     2     3    2
     3     2     4    1
     4     4    21   ar
     5     4     5   ar
     6     5     6   ar
     7     5    26    1
     8     6     7   ar
     9     6    27    1
    10     7     8    1
    11     7    20   ar
    12     8     9    1
    13     8    28    1
    14     9    10    1
    15     9    29    1
    16     9    30    1
    17    10    11    1
    18    10    12    1
    19    10    14    1
    20    12    13    1
    21    12    31    1
    22    12    32    1
    23    13    33    1
    24    14    15    1
    25    14    19    1
    26    14    16    1
    27    16    17    1
    28    16    34    1
    29    16    35    1
    30    17    18    1
    31    17    36    1
    32    17    37    1
    33    18    19    1
    34    19    38    1
    35    19    39    1
    36    20    21   ar
    37    20    40    1
    38    21    22    1
    39    22    23    1
    40    23    24    1
    41    23    25    1
    42    23    41    1
@<TRIPOS>SUBSTRUCTURE
     1 ZINC000281092425        1 TEMP              0 ****  ****    0 ROOT


##########                                Name:    ZINC000477669194
##########                DOCK_Rotatable_Bonds:                   6
##########                         Heavy_Atoms:                  26
##########                    Molecular_Weight:             387.483
##########                DOCK_Rotatable_Bonds:                   6
##########                       Formal_Charge:         4.47035e-07
##########                     HBond_Acceptors:                   8
##########                        HBond_Donors:                   2
##########                         Heavy_Atoms:                  26
##########                          Grid_Score:          -30.824675
##########                     Grid_vdw_energy:          -29.630312
##########                      Grid_es_energy:           -1.194362
##########           Internal_energy_repulsive:           35.968933

@<TRIPOS>MOLECULE
ZINC000477669194
 43 45 1 0 0
SMALL
USER_CHARGES


@<TRIPOS>ATOM
      1 C1         -9.0212    1.1403   56.9229 C.3     1  ZINC000477669194   -0.0800
      2 C2         -9.5653    0.2660   55.8226 C.2     1  ZINC000477669194    0.0500
      3 N3        -10.3325   -0.7524   56.0053 N.2     1  ZINC000477669194   -0.4900
      4 C4        -10.7238   -1.4154   54.9267 C.2     1  ZINC000477669194    0.1200
      5 C5        -11.6068   -2.6054   54.9870 C.ar    1  ZINC000477669194   -0.0600
      6 C6        -11.9201   -3.3036   53.8237 C.ar    1  ZINC000477669194   -0.0800
      7 C7        -12.7428   -4.4109   53.8849 C.ar    1  ZINC000477669194   -0.1400
      8 C8        -13.2580   -4.8307   55.0983 C.ar    1  ZINC000477669194   -0.0900
      9 C9        -12.9545   -4.1455   56.2598 C.ar    1  ZINC000477669194   -0.1300
     10 C10       -12.1247   -3.0354   56.2144 C.ar    1  ZINC000477669194    0.1800
     11 N11       -11.8162   -2.3416   57.3878 N.am    1  ZINC000477669194   -0.6500
     12 C12       -11.1106   -2.9475   58.3632 C.2     1  ZINC000477669194    0.5600
     13 O13       -10.7422   -4.0979   58.2223 O.2     1  ZINC000477669194   -0.5200
     14 C14       -10.7851   -2.2154   59.6015 C.ar    1  ZINC000477669194   -0.1500
     15 C15       -11.6701   -1.2550   60.1006 C.ar    1  ZINC000477669194   -0.0600
     16 C16       -11.3638   -0.5740   61.2564 C.ar    1  ZINC000477669194   -0.1400
     17 C17       -10.1742   -0.8405   61.9287 C.ar    1  ZINC000477669194    0.1700
     18 N18        -9.8676   -0.1505   63.0965 N.am    1  ZINC000477669194   -1.0600
     19 S19       -10.8177    1.1152   63.5839 S.o2    1  ZINC000477669194    2.6100
     20 C20       -10.7209    2.3058   62.2187 C.3     1  ZINC000477669194   -0.6700
     21 O21       -12.1231    0.5606   63.6704 O.2     1  ZINC000477669194   -0.9400
     22 O22       -10.1599    1.6235   64.7364 O.2     1  ZINC000477669194   -0.9500
     23 C23        -9.2911   -1.7966   61.4345 C.ar    1  ZINC000477669194   -0.1600
     24 C24        -9.5938   -2.4845   60.2819 C.ar    1  ZINC000477669194   -0.0300
     25 C25       -10.2485   -0.9123   53.7693 C.2     1  ZINC000477669194   -0.2600
     26 S26        -9.2568    0.4914   54.1567 S.3     1  ZINC000477669194    0.1500
     27 H27        -8.4066    1.9293   56.4897 H       1  ZINC000477669194    0.0800
     28 H28        -9.8484    1.5859   57.4754 H       1  ZINC000477669194    0.0900
     29 H29        -8.4152    0.5377   57.5996 H       1  ZINC000477669194    0.0900
     30 H30       -11.5204   -2.9790   52.8744 H       1  ZINC000477669194    0.1300
     31 H31       -12.9853   -4.9513   52.9818 H       1  ZINC000477669194    0.1300
     32 H32       -13.9007   -5.6976   55.1382 H       1  ZINC000477669194    0.1300
     33 H33       -13.3603   -4.4776   57.2039 H       1  ZINC000477669194    0.1500
     34 H34       -12.1101   -1.4241   57.5002 H       1  ZINC000477669194    0.4200
     35 H35       -12.5929   -1.0475   59.5794 H       1  ZINC000477669194    0.1300
     36 H36       -12.0468    0.1684   61.6423 H       1  ZINC000477669194    0.1400
     37 H37        -9.0973   -0.4107   63.6254 H       1  ZINC000477669194    0.4300
     38 H38       -11.1778    1.8749   61.3278 H       1  ZINC000477669194    0.1300
     39 H39       -11.2507    3.2178   62.4938 H       1  ZINC000477669194    0.1400
     40 H40        -9.6762    2.5400   62.0143 H       1  ZINC000477669194    0.1300
     41 H41        -8.3692   -2.0014   61.9586 H       1  ZINC000477669194    0.1700
     42 H42        -8.9085   -3.2263   59.8993 H       1  ZINC000477669194    0.1500
     43 H43       -10.4442   -1.2989   52.7802 H       1  ZINC000477669194    0.1800
@<TRIPOS>BOND
     1     1     2    1
     2     1    27    1
     3     1    28    1
     4     1    29    1
     5     2    26    1
     6     2     3    2
     7     3     4    1
     8     4     5    1
     9     4    25    2
    10     5    10   ar
    11     5     6   ar
    12     6     7   ar
    13     6    30    1
    14     7     8   ar
    15     7    31    1
    16     8     9   ar
    17     8    32    1
    18     9    10   ar
    19     9    33    1
    20    10    11    1
    21    11    12   am
    22    11    34    1
    23    12    13    2
    24    12    14    1
    25    14    24   ar
    26    14    15   ar
    27    15    16   ar
    28    15    35    1
    29    16    17   ar
    30    16    36    1
    31    17    18    1
    32    17    23   ar
    33    18    19   am
    34    18    37    1
    35    19    20    1
    36    19    21    2
    37    19    22    2
    38    20    38    1
    39    20    39    1
    40    20    40    1
    41    23    24   ar
    42    23    41    1
    43    24    42    1
    44    25    26    1
    45    25    43    1
@<TRIPOS>SUBSTRUCTURE
     1 ZINC000477669194        1 TEMP              0 ****  ****    0 ROOT


##########                                Name:    ZINC000966038509
##########                DOCK_Rotatable_Bonds:                   5
##########                         Heavy_Atoms:                  25
##########                    Molecular_Weight:             346.445
##########                DOCK_Rotatable_Bonds:                   5
##########                       Formal_Charge:           0.0299998
##########                     HBond_Acceptors:                   5
##########                        HBond_Donors:                   1
##########                         Heavy_Atoms:                  25
##########                          Grid_Score:          -30.811535
##########                     Grid_vdw_energy:          -30.785656
##########                      Grid_es_energy:           -0.025879
##########           Internal_energy_repulsive:           17.495161

@<TRIPOS>MOLECULE
ZINC000966038509
 52 54 1 0 0
SMALL
USER_CHARGES


@<TRIPOS>ATOM
      1 C1        -11.5024   -4.1786   57.1023 C.3     1  ZINC000966038509   -0.1200
      2 C2        -10.6482   -3.2508   57.9272 C.ar    1  ZINC000966038509   -0.0100
      3 C3         -9.9546   -3.7353   59.0153 C.ar    1  ZINC000966038509   -0.1600
      4 C4         -9.1687   -2.8826   59.7755 C.ar    1  ZINC000966038509    0.1300
      5 F5         -8.4913   -3.3626   60.8413 F       1  ZINC000966038509   -0.1300
      6 C6         -9.0752   -1.5392   59.4455 C.ar    1  ZINC000966038509   -0.1600
      7 C7         -9.7646   -1.0442   58.3594 C.ar    1  ZINC000966038509   -0.0100
      8 C8         -9.6624    0.4164   58.0022 C.3     1  ZINC000966038509   -0.1200
      9 C9        -10.5534   -1.8996   57.5872 C.ar    1  ZINC000966038509   -0.1500
     10 C10       -11.2945   -1.3747   56.4222 C.2     1  ZINC000966038509    0.5700
     11 O11       -12.4141   -0.9236   56.5668 O.2     1  ZINC000966038509   -0.5200
     12 N12       -10.7295   -1.3959   55.1987 N.am    1  ZINC000966038509   -0.7100
     13 C13       -11.4638   -0.8737   54.0436 C.3     1  ZINC000966038509    0.1300
     14 H14       -12.4847   -0.6094   54.3192 H       1  ZINC000966038509    0.1200
     15 C15       -10.7266    0.3365   53.4177 C.3     1  ZINC000966038509    0.0900
     16 N16        -9.6758   -0.2582   52.5716 N.am    1  ZINC000966038509   -0.6200
     17 C17        -8.5291    0.3462   52.2023 C.2     1  ZINC000966038509    0.5400
     18 O18        -7.7326   -0.2411   51.5013 O.2     1  ZINC000966038509   -0.5300
     19 C19        -8.2369    1.7518   52.6605 C.3     1  ZINC000966038509   -0.1100
     20 C20        -6.9143    2.2616   52.0359 C.3     1  ZINC000966038509   -0.1100
     21 C21        -7.0824    3.8004   52.0882 C.3     1  ZINC000966038509   -0.1200
     22 C22        -8.5732    4.0293   51.7640 C.3     1  ZINC000966038509   -0.1200
     23 C23        -9.3072    2.7268   52.1279 C.3     1  ZINC000966038509   -0.1100
     24 C24       -10.0857   -1.6198   52.1981 C.3     1  ZINC000966038509    0.1000
     25 C25       -11.4497   -1.8890   52.8703 C.3     1  ZINC000966038509   -0.1100
     26 H26       -12.2671   -1.6895   52.1775 H       1  ZINC000966038509    0.1000
     27 C27       -11.5224   -3.3259   53.3909 C.3     1  ZINC000966038509   -0.1400
     28 H28       -10.9015   -4.6103   56.3019 H       1  ZINC000966038509    0.0800
     29 H29       -11.8897   -4.9761   57.7365 H       1  ZINC000966038509    0.0800
     30 H30       -12.3340   -3.6205   56.6720 H       1  ZINC000966038509    0.0700
     31 H31       -10.0237   -4.7810   59.2766 H       1  ZINC000966038509    0.1400
     32 H32        -8.4614   -0.8794   60.0406 H       1  ZINC000966038509    0.1400
     33 H33        -8.8321    0.5643   57.3117 H       1  ZINC000966038509    0.0800
     34 H34       -10.5898    0.7407   57.5302 H       1  ZINC000966038509    0.0700
     35 H35        -9.4914    1.0004   58.9065 H       1  ZINC000966038509    0.0800
     36 H36        -9.8367   -1.7570   55.0830 H       1  ZINC000966038509    0.4000
     37 H37       -11.4133    0.9267   52.8112 H       1  ZINC000966038509    0.0800
     38 H38       -10.2812    0.9541   54.1977 H       1  ZINC000966038509    0.0800
     39 H39        -8.1889    1.7952   53.7486 H       1  ZINC000966038509    0.0900
     40 H40        -6.0584    1.9460   52.6326 H       1  ZINC000966038509    0.0700
     41 H41        -6.8160    1.9184   51.0060 H       1  ZINC000966038509    0.0700
     42 H42        -6.8465    4.1764   53.0837 H       1  ZINC000966038509    0.0700
     43 H43        -6.4513    4.2788   51.3392 H       1  ZINC000966038509    0.0700
     44 H44        -8.9621    4.8557   52.3590 H       1  ZINC000966038509    0.0700
     45 H45        -8.6959    4.2430   50.7022 H       1  ZINC000966038509    0.0700
     46 H46        -9.7861    2.3083   51.2426 H       1  ZINC000966038509    0.0800
     47 H47       -10.0522    2.9210   52.8994 H       1  ZINC000966038509    0.0700
     48 H48       -10.1854   -1.6929   51.1152 H       1  ZINC000966038509    0.0800
     49 H49        -9.3486   -2.3395   52.5541 H       1  ZINC000966038509    0.0700
     50 H50       -10.7153   -3.4952   54.1037 H       1  ZINC000966038509    0.0600
     51 H51       -12.4815   -3.4857   53.8834 H       1  ZINC000966038509    0.0700
     52 H52       -11.4220   -4.0201   52.5567 H       1  ZINC000966038509    0.0700
@<TRIPOS>BOND
     1     1     2    1
     2     1    28    1
     3     1    29    1
     4     1    30    1
     5     2     9   ar
     6     2     3   ar
     7     3     4   ar
     8     3    31    1
     9     4     5    1
    10     4     6   ar
    11     6     7   ar
    12     6    32    1
    13     7     8    1
    14     7     9   ar
    15     8    33    1
    16     8    34    1
    17     8    35    1
    18     9    10    1
    19    10    11    2
    20    10    12   am
    21    12    13    1
    22    12    36    1
    23    13    14    1
    24    13    25    1
    25    13    15    1
    26    15    16    1
    27    15    37    1
    28    15    38    1
    29    16    17   am
    30    16    24    1
    31    17    18    2
    32    17    19    1
    33    19    23    1
    34    19    20    1
    35    19    39    1
    36    20    21    1
    37    20    40    1
    38    20    41    1
    39    21    22    1
    40    21    42    1
    41    21    43    1
    42    22    23    1
    43    22    44    1
    44    22    45    1
    45    23    46    1
    46    23    47    1
    47    24    25    1
    48    24    48    1
    49    24    49    1
    50    25    26    1
    51    25    27    1
    52    27    50    1
    53    27    51    1
    54    27    52    1
@<TRIPOS>SUBSTRUCTURE
     1 ZINC000966038509        1 TEMP              0 ****  ****    0 ROOT


##########                                Name:    ZINC000599228306
##########                DOCK_Rotatable_Bonds:                   8
##########                         Heavy_Atoms:                  25
##########                    Molecular_Weight:             379.382
##########                DOCK_Rotatable_Bonds:                   8
##########                       Formal_Charge:        -4.09782e-08
##########                     HBond_Acceptors:                  10
##########                        HBond_Donors:                   1
##########                         Heavy_Atoms:                  25
##########                          Grid_Score:          -30.775988
##########                     Grid_vdw_energy:          -30.100552
##########                      Grid_es_energy:           -0.675435
##########           Internal_energy_repulsive:           24.273907

@<TRIPOS>MOLECULE
ZINC000599228306
 44 44 1 0 0
SMALL
USER_CHARGES


@<TRIPOS>ATOM
      1 C1         -8.7238    0.7265   64.2885 C.3     1  ZINC000599228306    0.0400
      2 O2         -9.6780    1.1085   63.2629 O.3     1  ZINC000599228306   -0.3500
      3 C3        -10.3185    0.1116   62.6215 C.2     1  ZINC000599228306    0.5100
      4 O4        -11.2934   -0.4081   63.1269 O.2     1  ZINC000599228306   -0.4800
      5 C5         -9.8358   -0.3489   61.3053 C.ar    1  ZINC000599228306   -0.1500
      6 C6         -9.3845   -1.6607   61.1430 C.ar    1  ZINC000599228306   -0.0100
      7 C7         -8.9341   -2.0848   59.9085 C.ar    1  ZINC000599228306    0.0700
      8 F8         -8.4973   -3.3534   59.7500 F       1  ZINC000599228306   -0.1200
      9 C9         -8.9295   -1.2125   58.8311 C.ar    1  ZINC000599228306    0.0100
     10 C10        -9.3747    0.0874   58.9837 C.ar    1  ZINC000599228306   -0.7100
     11 S11        -9.3647    1.1871   57.6070 S.o2    1  ZINC000599228306    2.7000
     12 O12       -10.3143    2.2033   57.8985 O.2     1  ZINC000599228306   -0.9200
     13 O13        -7.9997    1.4580   57.3196 O.2     1  ZINC000599228306   -0.9300
     14 N14        -9.9591    0.3506   56.3072 N.am    1  ZINC000599228306   -1.1000
     15 C15       -11.3137   -0.2055   56.3512 C.3     1  ZINC000599228306    0.1600
     16 H16       -11.5892   -0.4093   57.3860 H       1  ZINC000599228306    0.1300
     17 C17       -12.2976    0.8000   55.7499 C.3     1  ZINC000599228306   -0.1700
     18 C18       -11.3568   -1.4864   55.5583 C.2     1  ZINC000599228306    0.4700
     19 O19       -12.0780   -2.3901   55.9092 O.2     1  ZINC000599228306   -0.4900
     20 O20       -10.5940   -1.6234   54.4624 O.3     1  ZINC000599228306   -0.3400
     21 C21       -11.1752   -2.3373   53.3397 C.3     1  ZINC000599228306    0.1200
     22 C22       -11.1327   -3.8418   53.6148 C.3     1  ZINC000599228306   -0.1900
     23 C23       -12.6274   -1.8944   53.1501 C.3     1  ZINC000599228306   -0.1400
     24 C24       -10.3780   -2.0282   52.0708 C.3     1  ZINC000599228306   -0.1800
     25 C25        -9.8334    0.5246   60.2125 C.ar    1  ZINC000599228306    0.2500
     26 F26       -10.2685    1.7951   60.3600 F       1  ZINC000599228306   -0.0900
     27 H27        -8.2809    1.6220   64.7243 H       1  ZINC000599228306    0.1100
     28 H28        -9.2343    0.1583   65.0661 H       1  ZINC000599228306    0.0700
     29 H29        -7.9401    0.1123   63.8450 H       1  ZINC000599228306    0.0700
     30 H30        -9.3873   -2.3417   61.9813 H       1  ZINC000599228306    0.1700
     31 H31        -8.5762   -1.5498   57.8680 H       1  ZINC000599228306    0.1800
     32 H32        -9.4103    0.2290   55.5166 H       1  ZINC000599228306    0.4300
     33 H33       -13.3055    0.3861   55.7827 H       1  ZINC000599228306    0.0900
     34 H34       -12.2664    1.7264   56.3235 H       1  ZINC000599228306    0.0700
     35 H35       -12.0220    1.0037   54.7152 H       1  ZINC000599228306    0.0800
     36 H36       -11.7006   -4.0621   54.5187 H       1  ZINC000599228306    0.0600
     37 H37       -11.5689   -4.3778   52.7719 H       1  ZINC000599228306    0.0700
     38 H38       -10.0981   -4.1574   53.7498 H       1  ZINC000599228306    0.0800
     39 H39       -12.6577   -0.8227   52.9541 H       1  ZINC000599228306    0.0700
     40 H40       -13.0637   -2.4305   52.3072 H       1  ZINC000599228306    0.0800
     41 H41       -13.1954   -2.1148   54.0540 H       1  ZINC000599228306    0.0700
     42 H42        -9.3435   -2.3438   52.2058 H       1  ZINC000599228306    0.0800
     43 H43       -10.8143   -2.5642   51.2279 H       1  ZINC000599228306    0.0700
     44 H44       -10.4083   -0.9564   51.8748 H       1  ZINC000599228306    0.0600
@<TRIPOS>BOND
     1     1     2    1
     2     1    27    1
     3     1    28    1
     4     1    29    1
     5     2     3    1
     6     3     4    2
     7     3     5    1
     8     5    25   ar
     9     5     6   ar
    10     6     7   ar
    11     6    30    1
    12     7     8    1
    13     7     9   ar
    14     9    10   ar
    15     9    31    1
    16    10    11    1
    17    10    25   ar
    18    11    12    2
    19    11    13    2
    20    11    14   am
    21    14    15    1
    22    14    32    1
    23    15    16    1
    24    15    17    1
    25    15    18    1
    26    17    33    1
    27    17    34    1
    28    17    35    1
    29    18    19    2
    30    18    20    1
    31    20    21    1
    32    21    22    1
    33    21    23    1
    34    21    24    1
    35    22    36    1
    36    22    37    1
    37    22    38    1
    38    23    39    1
    39    23    40    1
    40    23    41    1
    41    24    42    1
    42    24    43    1
    43    24    44    1
    44    25    26    1
@<TRIPOS>SUBSTRUCTURE
     1 ZINC000599228306        1 TEMP              0 ****  ****    0 ROOT


##########                                Name:    ZINC000337709254
##########                DOCK_Rotatable_Bonds:                   7
##########                         Heavy_Atoms:                  22
##########                    Molecular_Weight:              329.42
##########                DOCK_Rotatable_Bonds:                   7
##########                       Formal_Charge:           0.0300004
##########                     HBond_Acceptors:                   8
##########                        HBond_Donors:                   2
##########                         Heavy_Atoms:                  22
##########                          Grid_Score:          -30.715769
##########                     Grid_vdw_energy:          -30.817654
##########                      Grid_es_energy:            0.101884
##########           Internal_energy_repulsive:           10.308758

@<TRIPOS>MOLECULE
ZINC000337709254
 45 46 1 0 0
SMALL
USER_CHARGES


@<TRIPOS>ATOM
      1 C1        -10.1421   -1.3409   52.8217 C.3     1  ZINC000337709254   -0.6700
      2 S2        -11.6893   -2.1485   52.3270 S.o2    1  ZINC000337709254    2.6100
      3 O3        -12.2287   -1.5257   51.1692 O.2     1  ZINC000337709254   -0.9500
      4 O4        -11.5618   -3.5615   52.4068 O.2     1  ZINC000337709254   -0.9500
      5 N5        -12.7587   -1.7662   53.5322 N.am    1  ZINC000337709254   -1.1200
      6 C6        -12.4823   -2.1719   54.9125 C.3     1  ZINC000337709254    0.1200
      7 C7        -13.5923   -3.1044   55.4019 C.3     1  ZINC000337709254   -0.1100
      8 H8        -14.5604   -2.7743   55.0251 H       1  ZINC000337709254    0.1100
      9 C9        -13.3082   -4.5624   54.9629 C.3     1  ZINC000337709254   -0.1200
     10 C10       -14.1111   -5.3926   55.9948 C.3     1  ZINC000337709254   -0.1200
     11 C11       -13.9328   -4.6235   57.3202 C.3     1  ZINC000337709254   -0.1400
     12 C12       -13.6052   -3.1659   56.9433 C.3     1  ZINC000337709254    0.1500
     13 H13       -14.3685   -2.4969   57.3408 H       1  ZINC000337709254    0.1000
     14 N14       -12.2896   -2.7949   57.4702 N.am    1  ZINC000337709254   -0.7200
     15 C15       -12.1899   -2.1967   58.6737 C.2     1  ZINC000337709254    0.5300
     16 O16       -13.1895   -1.9643   59.3201 O.2     1  ZINC000337709254   -0.5100
     17 C17       -10.8364   -1.8168   59.2166 C.3     1  ZINC000337709254    0.0200
     18 C18       -10.1812   -0.8770   58.2923 C.1     1  ZINC000337709254    0.2000
     19 N19        -9.6755   -0.1518   57.5790 N.1     1  ZINC000337709254   -0.3900
     20 C20       -11.0016   -1.1572   60.5891 C.3     1  ZINC000337709254   -0.1500
     21 C21        -9.6185   -0.8463   61.1671 C.3     1  ZINC000337709254    0.0600
     22 O22        -8.8568   -2.0525   61.2513 O.3     1  ZINC000337709254   -0.3700
     23 C23        -8.6299   -2.6885   59.9919 C.3     1  ZINC000337709254    0.0600
     24 C24        -9.9733   -3.0734   59.3667 C.3     1  ZINC000337709254   -0.1300
     25 H25       -10.3018   -0.2654   52.8979 H       1  ZINC000337709254    0.1300
     26 H26        -9.8220   -1.7301   53.7883 H       1  ZINC000337709254    0.1300
     27 H27        -9.3727   -1.5420   52.0763 H       1  ZINC000337709254    0.1300
     28 H28       -13.5681   -1.2737   53.3242 H       1  ZINC000337709254    0.4200
     29 H29       -11.5258   -2.6928   54.9536 H       1  ZINC000337709254    0.0600
     30 H30       -12.4427   -1.2885   55.5498 H       1  ZINC000337709254    0.0900
     31 H31       -13.6770   -4.7404   53.9528 H       1  ZINC000337709254    0.0800
     32 H32       -12.2435   -4.7860   55.0315 H       1  ZINC000337709254    0.0700
     33 H33       -15.1640   -5.4329   55.7157 H       1  ZINC000337709254    0.0700
     34 H34       -13.6991   -6.3983   56.0789 H       1  ZINC000337709254    0.0700
     35 H35       -14.8555   -4.6591   57.8995 H       1  ZINC000337709254    0.0800
     36 H36       -13.1136   -5.0552   57.8950 H       1  ZINC000337709254    0.0700
     37 H37       -11.4902   -2.9797   56.9527 H       1  ZINC000337709254    0.4000
     38 H38       -11.5682   -0.2321   60.4828 H       1  ZINC000337709254    0.0900
     39 H39       -11.5317   -1.8353   61.2578 H       1  ZINC000337709254    0.1100
     40 H40        -9.1046   -0.1366   60.5187 H       1  ZINC000337709254    0.0500
     41 H41        -9.7286   -0.4157   62.1623 H       1  ZINC000337709254    0.1100
     42 H42        -8.1031   -2.0029   59.3281 H       1  ZINC000337709254    0.0500
     43 H43        -8.0280   -3.5850   60.1406 H       1  ZINC000337709254    0.1100
     44 H44       -10.4827   -3.7902   60.0107 H       1  ZINC000337709254    0.1100
     45 H45        -9.8046   -3.5186   58.3863 H       1  ZINC000337709254    0.0900
@<TRIPOS>BOND
     1     1     2    1
     2     1    25    1
     3     1    26    1
     4     1    27    1
     5     2     3    2
     6     2     4    2
     7     2     5   am
     8     5     6    1
     9     5    28    1
    10     6     7    1
    11     6    29    1
    12     6    30    1
    13     7     8    1
    14     7    12    1
    15     7     9    1
    16     9    10    1
    17     9    31    1
    18     9    32    1
    19    10    11    1
    20    10    33    1
    21    10    34    1
    22    11    12    1
    23    11    35    1
    24    11    36    1
    25    12    13    1
    26    12    14    1
    27    14    15   am
    28    14    37    1
    29    15    16    2
    30    15    17    1
    31    17    24    1
    32    17    18    1
    33    17    20    1
    34    18    19    3
    35    20    21    1
    36    20    38    1
    37    20    39    1
    38    21    22    1
    39    21    40    1
    40    21    41    1
    41    22    23    1
    42    23    24    1
    43    23    42    1
    44    23    43    1
    45    24    44    1
    46    24    45    1
@<TRIPOS>SUBSTRUCTURE
     1 ZINC000337709254        1 TEMP              0 ****  ****    0 ROOT


##########                                Name:    ZINC000616491533
##########                DOCK_Rotatable_Bonds:                   4
##########                         Heavy_Atoms:                  27
##########                    Molecular_Weight:             375.418
##########                DOCK_Rotatable_Bonds:                   4
##########                       Formal_Charge:           0.0299996
##########                     HBond_Acceptors:                   7
##########                        HBond_Donors:                   0
##########                         Heavy_Atoms:                  27
##########                          Grid_Score:          -30.715565
##########                     Grid_vdw_energy:          -29.819355
##########                      Grid_es_energy:           -0.896210
##########           Internal_energy_repulsive:           10.596952

@<TRIPOS>MOLECULE
ZINC000616491533
 50 53 1 0 0
SMALL
USER_CHARGES


@<TRIPOS>ATOM
      1 C1        -14.6884   -4.3372   54.9867 C.3     1  ZINC000616491533   -0.1700
      2 C2        -13.1953   -4.6103   54.7953 C.3     1  ZINC000616491533    0.1400
      3 H3        -13.0137   -5.6851   54.7832 H       1  ZINC000616491533    0.0800
      4 C4        -12.7120   -3.9811   53.4698 C.3     1  ZINC000616491533   -0.1200
      5 C5        -12.0878   -2.6473   53.9301 C.3     1  ZINC000616491533   -0.0700
      6 C6        -11.4798   -3.0158   55.2969 C.3     1  ZINC000616491533    0.0900
      7 N7        -12.4290   -3.9859   55.8844 N.am    1  ZINC000616491533   -0.6100
      8 C8        -12.5690   -4.2498   57.1986 C.2     1  ZINC000616491533    0.6100
      9 O9        -13.3876   -5.0687   57.5705 O.2     1  ZINC000616491533   -0.5200
     10 C10       -11.7301   -3.5458   58.1853 C.2     1  ZINC000616491533   -0.2400
     11 C11       -12.1137   -2.4813   58.9763 C.2     1  ZINC000616491533    0.0700
     12 C12       -13.4692   -1.8230   58.9906 C.3     1  ZINC000616491533    0.3400
     13 F13       -13.8320   -1.4741   57.6852 F       1  ZINC000616491533   -0.1900
     14 F14       -14.4137   -2.7116   59.5154 F       1  ZINC000616491533   -0.1600
     15 N15       -11.0544   -2.1403   59.7325 N.pl3   1  ZINC000616491533   -0.2900
     16 C16       -11.0207   -1.1040   60.6756 C.ar    1  ZINC000616491533    0.1300
     17 C17        -9.9966   -0.1670   60.6433 C.ar    1  ZINC000616491533   -0.1000
     18 C18        -9.9661    0.8530   61.5740 C.ar    1  ZINC000616491533   -0.1000
     19 C19       -10.9539    0.9413   62.5376 C.ar    1  ZINC000616491533   -0.1000
     20 C20       -11.9751    0.0097   62.5725 C.ar    1  ZINC000616491533   -0.1000
     21 C21       -12.0145   -1.0090   61.6407 C.ar    1  ZINC000616491533   -0.0900
     22 N22        -9.9920   -2.9951   59.4181 N.2     1  ZINC000616491533   -0.2600
     23 C23       -10.3844   -3.8383   58.5030 C.2     1  ZINC000616491533    0.0700
     24 C24       -11.0033   -2.1992   52.9611 C.3     1  ZINC000616491533   -0.1400
     25 C25       -10.4381   -0.8516   53.4232 C.3     1  ZINC000616491533    0.0600
     26 O26       -11.5043    0.0933   53.5371 O.3     1  ZINC000616491533   -0.3800
     27 C27       -12.5004   -0.2581   54.4998 C.3     1  ZINC000616491533    0.0600
     28 C28       -13.1599   -1.5788   54.0872 C.3     1  ZINC000616491533   -0.1500
     29 H29       -14.8609   -3.2613   55.0103 H       1  ZINC000616491533    0.0600
     30 H30       -15.2471   -4.7767   54.1604 H       1  ZINC000616491533    0.0600
     31 H31       -15.0211   -4.7792   55.9259 H       1  ZINC000616491533    0.0800
     32 H32       -11.9631   -4.6135   52.9929 H       1  ZINC000616491533    0.0800
     33 H33       -13.5520   -3.8026   52.7985 H       1  ZINC000616491533    0.0900
     34 H34       -10.5010   -3.4768   55.1651 H       1  ZINC000616491533    0.0800
     35 H35       -11.4016   -2.1309   55.9286 H       1  ZINC000616491533    0.0800
     36 H36       -13.4311   -0.9262   59.6090 H       1  ZINC000616491533    0.1400
     37 H37        -9.2244   -0.2359   59.8914 H       1  ZINC000616491533    0.1300
     38 H38        -9.1697    1.5821   61.5493 H       1  ZINC000616491533    0.1400
     39 H39       -10.9275    1.7394   63.2649 H       1  ZINC000616491533    0.1300
     40 H40       -12.7452    0.0813   63.3262 H       1  ZINC000616491533    0.1400
     41 H41       -12.8123   -1.7365   61.6683 H       1  ZINC000616491533    0.1300
     42 H42        -9.7837   -4.6194   58.0610 H       1  ZINC000616491533    0.2100
     43 H43       -10.2048   -2.9409   52.9401 H       1  ZINC000616491533    0.0800
     44 H44       -11.4283   -2.0927   51.9630 H       1  ZINC000616491533    0.0800
     45 H45        -9.9543   -0.9730   54.3924 H       1  ZINC000616491533    0.0500
     46 H46        -9.7104   -0.4932   52.6950 H       1  ZINC000616491533    0.1000
     47 H47       -12.0355   -0.3739   55.4788 H       1  ZINC000616491533    0.0500
     48 H48       -13.2553    0.5268   54.5454 H       1  ZINC000616491533    0.1000
     49 H49       -13.6816   -1.4446   53.1396 H       1  ZINC000616491533    0.0800
     50 H50       -13.8704   -1.8861   54.8544 H       1  ZINC000616491533    0.0800
@<TRIPOS>BOND
     1     1     2    1
     2     1    29    1
     3     1    30    1
     4     1    31    1
     5     2     3    1
     6     2     7    1
     7     2     4    1
     8     4     5    1
     9     4    32    1
    10     4    33    1
    11     5    28    1
    12     5     6    1
    13     5    24    1
    14     6     7    1
    15     6    34    1
    16     6    35    1
    17     7     8   am
    18     8     9    2
    19     8    10    1
    20    10    23    1
    21    10    11    2
    22    11    12    1
    23    11    15    1
    24    12    13    1
    25    12    14    1
    26    12    36    1
    27    15    16    1
    28    15    22    1
    29    16    21   ar
    30    16    17   ar
    31    17    18   ar
    32    17    37    1
    33    18    19   ar
    34    18    38    1
    35    19    20   ar
    36    19    39    1
    37    20    21   ar
    38    20    40    1
    39    21    41    1
    40    22    23    2
    41    23    42    1
    42    24    25    1
    43    24    43    1
    44    24    44    1
    45    25    26    1
    46    25    45    1
    47    25    46    1
    48    26    27    1
    49    27    28    1
    50    27    47    1
    51    27    48    1
    52    28    49    1
    53    28    50    1
@<TRIPOS>SUBSTRUCTURE
     1 ZINC000616491533        1 TEMP              0 ****  ****    0 ROOT


##########                                Name:    ZINC000057429281
##########                DOCK_Rotatable_Bonds:                  10
##########                         Heavy_Atoms:                  23
##########                    Molecular_Weight:             331.295
##########                DOCK_Rotatable_Bonds:                  10
##########                       Formal_Charge:          -0.0100002
##########                     HBond_Acceptors:                   9
##########                        HBond_Donors:                   5
##########                         Heavy_Atoms:                  23
##########                          Grid_Score:          -30.682390
##########                     Grid_vdw_energy:          -30.862474
##########                      Grid_es_energy:            0.180084
##########           Internal_energy_repulsive:           10.752431

@<TRIPOS>MOLECULE
ZINC000057429281
 39 39 1 0 0
SMALL
USER_CHARGES


@<TRIPOS>ATOM
      1 C1         -9.3957   -0.9466   58.9578 C.3     1  ZINC000057429281   -0.1500
      2 C2         -9.8296   -1.7432   60.1898 C.3     1  ZINC000057429281   -0.0400
      3 H3         -9.1763   -2.6071   60.3124 H       1  ZINC000057429281    0.0900
      4 C4        -11.2730   -2.2169   60.0086 C.3     1  ZINC000057429281   -0.1300
      5 C5        -11.3123   -3.3320   58.9955 C.2     1  ZINC000057429281    0.5200
      6 O6        -10.4173   -4.1496   58.9587 O.2     1  ZINC000057429281   -0.5300
      7 N7        -12.3420   -3.4207   58.1305 N.am    1  ZINC000057429281   -0.7000
      8 C8        -12.3794   -4.5036   57.1446 C.3     1  ZINC000057429281    0.1100
      9 C9        -13.7158   -5.1970   57.2105 C.2     1  ZINC000057429281    0.5200
     10 N10       -14.7836   -4.5547   57.7239 N.am    1  ZINC000057429281   -0.8500
     11 O11       -13.8304   -6.3330   56.8015 O.2     1  ZINC000057429281   -0.5100
     12 C12       -12.1766   -3.9336   55.7644 C.2     1  ZINC000057429281    0.5300
     13 N13       -13.2408   -3.5604   55.0264 N.am    1  ZINC000057429281   -0.8400
     14 O14       -11.0558   -3.8108   55.3177 O.2     1  ZINC000057429281   -0.5100
     15 C15        -9.7382   -0.8669   61.4124 C.ar    1  ZINC000057429281   -0.0500
     16 C16       -10.5067    0.2787   61.5005 C.ar    1  ZINC000057429281   -0.1200
     17 C17       -10.4230    1.0826   62.6220 C.ar    1  ZINC000057429281   -0.0700
     18 C18        -9.5710    0.7407   63.6555 C.ar    1  ZINC000057429281   -0.1900
     19 C19        -9.4793    1.6172   64.8779 C.3     1  ZINC000057429281    0.5100
     20 F20       -10.5064    1.2853   65.7680 F       1  ZINC000057429281   -0.1800
     21 F21        -8.2417    1.4219   65.5001 F       1  ZINC000057429281   -0.1800
     22 F22        -9.6048    2.9585   64.5003 F       1  ZINC000057429281   -0.1800
     23 C23        -8.8035   -0.4056   63.5679 C.ar    1  ZINC000057429281   -0.0700
     24 C24        -8.8900   -1.2116   62.4481 C.ar    1  ZINC000057429281   -0.1100
     25 H25        -8.3673   -0.6091   59.0868 H       1  ZINC000057429281    0.0600
     26 H26        -9.4617   -1.5805   58.0735 H       1  ZINC000057429281    0.0800
     27 H27       -10.0489   -0.0826   58.8351 H       1  ZINC000057429281    0.0500
     28 H28       -11.6593   -2.5781   60.9616 H       1  ZINC000057429281    0.1000
     29 H29       -11.8866   -1.3867   59.6590 H       1  ZINC000057429281    0.1000
     30 H30       -13.0585   -2.7674   58.1608 H       1  ZINC000057429281    0.4200
     31 H31       -11.5873   -5.2201   57.3618 H       1  ZINC000057429281    0.1300
     32 H32       -15.6438   -5.0008   57.7663 H       1  ZINC000057429281    0.4000
     33 H33       -14.6918   -3.6461   58.0511 H       1  ZINC000057429281    0.4100
     34 H34       -13.1104   -3.1935   54.1380 H       1  ZINC000057429281    0.4000
     35 H35       -14.1373   -3.6586   55.3837 H       1  ZINC000057429281    0.4100
     36 H36       -11.1725    0.5459   60.6932 H       1  ZINC000057429281    0.1400
     37 H37       -11.0229    1.9780   62.6906 H       1  ZINC000057429281    0.1400
     38 H38        -8.1380   -0.6731   64.3755 H       1  ZINC000057429281    0.1400
     39 H39        -8.2904   -2.1072   62.3797 H       1  ZINC000057429281    0.1400
@<TRIPOS>BOND
     1     1     2    1
     2     1    25    1
     3     1    26    1
     4     1    27    1
     5     2     3    1
     6     2     4    1
     7     2    15    1
     8     4     5    1
     9     4    28    1
    10     4    29    1
    11     5     6    2
    12     5     7   am
    13     7     8    1
    14     7    30    1
    15     8     9    1
    16     8    12    1
    17     8    31    1
    18     9    10   am
    19     9    11    2
    20    10    32    1
    21    10    33    1
    22    12    13   am
    23    12    14    2
    24    13    34    1
    25    13    35    1
    26    15    24   ar
    27    15    16   ar
    28    16    17   ar
    29    16    36    1
    30    17    18   ar
    31    17    37    1
    32    18    19    1
    33    18    23   ar
    34    19    20    1
    35    19    21    1
    36    19    22    1
    37    23    24   ar
    38    23    38    1
    39    24    39    1
@<TRIPOS>SUBSTRUCTURE
     1 ZINC000057429281        1 TEMP              0 ****  ****    0 ROOT


##########                                Name:    ZINC000194290865
##########                DOCK_Rotatable_Bonds:                   7
##########                         Heavy_Atoms:                  28
##########                    Molecular_Weight:             387.479
##########                DOCK_Rotatable_Bonds:                   7
##########                       Formal_Charge:          -0.0400003
##########                     HBond_Acceptors:                   7
##########                        HBond_Donors:                   0
##########                         Heavy_Atoms:                  28
##########                          Grid_Score:          -30.672522
##########                     Grid_vdw_energy:          -29.995083
##########                      Grid_es_energy:           -0.677438
##########           Internal_energy_repulsive:           39.547085

@<TRIPOS>MOLECULE
ZINC000194290865
 57 59 1 0 0
SMALL
USER_CHARGES


@<TRIPOS>ATOM
      1 C1         -9.1746   -2.3096   60.8452 C.3     1  ZINC000194290865   -0.1500
      2 C2         -9.7242   -1.2080   61.7536 C.3     1  ZINC000194290865    0.0600
      3 O3         -9.9522   -0.0054   60.9726 O.3     1  ZINC000194290865   -0.3600
      4 C4        -10.8943   -0.0680   60.0184 C.2     1  ZINC000194290865    0.4700
      5 O5        -11.8361   -0.8139   60.1472 O.2     1  ZINC000194290865   -0.4900
      6 C6        -10.7774    0.7921   58.7865 C.3     1  ZINC000194290865   -0.0600
      7 C7        -10.8934    2.2714   59.1592 C.3     1  ZINC000194290865   -0.0700
      8 C8        -10.9306    3.1171   57.8846 C.3     1  ZINC000194290865   -0.1700
      9 C9        -12.1783    2.4968   59.9585 C.3     1  ZINC000194290865   -0.1600
     10 C10        -9.4358    0.5207   58.0673 C.3     1  ZINC000194290865   -0.1200
     11 C11        -9.8352   -0.4914   56.9641 C.3     1  ZINC000194290865    0.0900
     12 N12       -11.1701   -0.0154   56.5336 N.am    1  ZINC000194290865   -0.6100
     13 C13       -11.6527    0.0196   55.2758 C.2     1  ZINC000194290865    0.5800
     14 O14       -12.7742    0.4383   55.0666 O.2     1  ZINC000194290865   -0.5000
     15 C15       -10.8168   -0.4522   54.1491 C.ar    1  ZINC000194290865    0.0100
     16 C16       -11.0159   -1.7239   53.5782 C.ar    1  ZINC000194290865   -0.2200
     17 C17       -10.1998   -2.1332   52.5095 C.ar    1  ZINC000194290865    0.3000
     18 N18        -9.2559   -1.3264   52.0496 N.ar    1  ZINC000194290865   -0.4700
     19 C19        -9.0468   -0.1329   52.5630 C.ar    1  ZINC000194290865    0.2100
     20 C20        -7.9548    0.7326   51.9889 C.3     1  ZINC000194290865   -0.1100
     21 C21        -9.8095    0.3504   53.6139 C.ar    1  ZINC000194290865   -0.1800
     22 O22       -10.6018   -3.3726   52.1630 O.3     1  ZINC000194290865   -0.0800
     23 N23       -11.6709   -3.7705   52.9972 N.2     1  ZINC000194290865   -0.2600
     24 C24       -11.9421   -2.8241   53.8434 C.2     1  ZINC000194290865    0.1600
     25 C25       -13.0131   -2.8539   54.9032 C.3     1  ZINC000194290865   -0.0400
     26 C26       -14.3427   -2.3996   54.2977 C.3     1  ZINC000194290865   -0.1500
     27 C27       -13.1583   -4.2787   55.4417 C.3     1  ZINC000194290865   -0.1400
     28 C28       -11.8636    0.4114   57.7634 C.3     1  ZINC000194290865    0.1200
     29 H29        -9.8943   -2.5211   60.0543 H       1  ZINC000194290865    0.0700
     30 H30        -8.2346   -1.9801   60.4025 H       1  ZINC000194290865    0.0700
     31 H31        -9.0034   -3.2124   61.4316 H       1  ZINC000194290865    0.0800
     32 H32       -10.6642   -1.5375   62.1963 H       1  ZINC000194290865    0.0700
     33 H33        -9.0045   -0.9966   62.5445 H       1  ZINC000194290865    0.0700
     34 H34       -10.0340    2.5624   59.7632 H       1  ZINC000194290865    0.0900
     35 H35       -10.0152    2.9566   57.3152 H       1  ZINC000194290865    0.0500
     36 H36       -11.7901    2.8261   57.2806 H       1  ZINC000194290865    0.0800
     37 H37       -11.0133    4.1711   58.1501 H       1  ZINC000194290865    0.0600
     38 H38       -12.1518    1.8944   60.8665 H       1  ZINC000194290865    0.0500
     39 H39       -12.2610    3.5507   60.2241 H       1  ZINC000194290865    0.0600
     40 H40       -13.0378    2.2058   59.3545 H       1  ZINC000194290865    0.0800
     41 H41        -9.0419    1.4365   57.6266 H       1  ZINC000194290865    0.0900
     42 H42        -8.7128    0.0789   58.7530 H       1  ZINC000194290865    0.0900
     43 H43        -9.1284   -0.4557   56.1352 H       1  ZINC000194290865    0.0900
     44 H44        -9.8998   -1.5000   57.3725 H       1  ZINC000194290865    0.0900
     45 H45        -8.3619    1.3452   51.1844 H       1  ZINC000194290865    0.0900
     46 H46        -7.5544    1.3784   52.7704 H       1  ZINC000194290865    0.0900
     47 H47        -7.1584    0.1002   51.5966 H       1  ZINC000194290865    0.0900
     48 H48        -9.6205    1.3334   54.0194 H       1  ZINC000194290865    0.1600
     49 H49       -12.7371   -2.1841   55.7176 H       1  ZINC000194290865    0.1100
     50 H50       -14.6187   -3.0694   53.4833 H       1  ZINC000194290865    0.0700
     51 H51       -15.1173   -2.4212   55.0642 H       1  ZINC000194290865    0.0700
     52 H52       -14.2393   -1.3846   53.9141 H       1  ZINC000194290865    0.0600
     53 H53       -12.2110   -4.6023   55.8731 H       1  ZINC000194290865    0.0600
     54 H54       -13.9328   -4.3002   56.2082 H       1  ZINC000194290865    0.0700
     55 H55       -13.4342   -4.9485   54.6273 H       1  ZINC000194290865    0.0600
     56 H56       -12.4687   -0.4078   58.1517 H       1  ZINC000194290865    0.0800
     57 H57       -12.4945    1.2750   57.5530 H       1  ZINC000194290865    0.1000
@<TRIPOS>BOND
     1     1     2    1
     2     1    29    1
     3     1    30    1
     4     1    31    1
     5     2     3    1
     6     2    32    1
     7     2    33    1
     8     3     4    1
     9     4     5    2
    10     4     6    1
    11     6    28    1
    12     6     7    1
    13     6    10    1
    14     7     8    1
    15     7     9    1
    16     7    34    1
    17     8    35    1
    18     8    36    1
    19     8    37    1
    20     9    38    1
    21     9    39    1
    22     9    40    1
    23    10    11    1
    24    10    41    1
    25    10    42    1
    26    11    12    1
    27    11    43    1
    28    11    44    1
    29    12    13   am
    30    12    28    1
    31    13    14    2
    32    13    15    1
    33    15    21   ar
    34    15    16   ar
    35    16    24    1
    36    16    17   ar
    37    17    18   ar
    38    17    22    1
    39    18    19   ar
    40    19    20    1
    41    19    21   ar
    42    20    45    1
    43    20    46    1
    44    20    47    1
    45    21    48    1
    46    22    23    1
    47    23    24    2
    48    24    25    1
    49    25    26    1
    50    25    27    1
    51    25    49    1
    52    26    50    1
    53    26    51    1
    54    26    52    1
    55    27    53    1
    56    27    54    1
    57    27    55    1
    58    28    56    1
    59    28    57    1
@<TRIPOS>SUBSTRUCTURE
     1 ZINC000194290865        1 TEMP              0 ****  ****    0 ROOT


##########                                Name:    ZINC001401207732
##########                DOCK_Rotatable_Bonds:                   8
##########                         Heavy_Atoms:                  23
##########                    Molecular_Weight:             337.446
##########                DOCK_Rotatable_Bonds:                   8
##########                       Formal_Charge:          -0.0199995
##########                     HBond_Acceptors:                   8
##########                        HBond_Donors:                   1
##########                         Heavy_Atoms:                  23
##########                          Grid_Score:          -30.637728
##########                     Grid_vdw_energy:          -29.865822
##########                      Grid_es_energy:           -0.771907
##########           Internal_energy_repulsive:          191.937332

@<TRIPOS>MOLECULE
ZINC001401207732
 46 47 1 0 0
SMALL
USER_CHARGES


@<TRIPOS>ATOM
      1 C1        -17.3691    1.3809   60.4086 C.3     1  ZINC001401207732   -0.0900
      2 C2        -16.2866    0.6734   61.1827 C.2     1  ZINC001401207732    0.1500
      3 C3        -15.7395   -0.5006   60.7793 C.2     1  ZINC001401207732   -0.3000
      4 C4        -16.0954   -1.2504   59.5698 C.2     1  ZINC001401207732    0.6100
      5 O5        -16.9526   -0.8230   58.8193 O.2     1  ZINC001401207732   -0.5200
      6 N6        -15.4729   -2.4125   59.2897 N.am    1  ZINC001401207732   -0.5900
      7 C7        -14.4408   -2.9268   60.1933 C.3     1  ZINC001401207732    0.0700
      8 C8        -15.8284   -3.1612   58.0818 C.3     1  ZINC001401207732    0.1400
      9 H9        -16.1381   -4.1694   58.3572 H       1  ZINC001401207732    0.1100
     10 C10       -16.9783   -2.4531   57.3626 C.3     1  ZINC001401207732   -0.1600
     11 C11       -14.6150   -3.2365   57.1528 C.3     1  ZINC001401207732    0.0500
     12 N12       -14.0525   -4.5929   57.1909 N.3     1  ZINC001401207732   -0.6800
     13 C13       -12.7738   -4.6530   56.4702 C.3     1  ZINC001401207732    0.1500
     14 C14       -11.6384   -4.4839   57.4467 C.2     1  ZINC001401207732    0.1800
     15 N15       -11.1859   -3.3519   57.9297 N.2     1  ZINC001401207732   -0.4800
     16 C16       -10.1776   -3.6875   58.7542 C.2     1  ZINC001401207732    0.1800
     17 C17        -9.3280   -2.7365   59.5571 C.3     1  ZINC001401207732   -0.0100
     18 C18        -9.2769   -1.3792   58.8528 C.3     1  ZINC001401207732   -0.1500
     19 C19        -9.9334   -2.5649   60.9517 C.3     1  ZINC001401207732   -0.1500
     20 N20       -10.0704   -4.9823   58.7309 N.2     1  ZINC001401207732   -0.3800
     21 O21       -10.9042   -5.4594   57.9903 O.3     1  ZINC001401207732    0.0900
     22 S22       -14.5299   -0.9673   61.9727 S.3     1  ZINC001401207732    0.1800
     23 C23       -14.8650    0.4437   62.8778 C.2     1  ZINC001401207732    0.0100
     24 N24       -15.7927    1.1390   62.3023 N.2     1  ZINC001401207732   -0.4800
     25 H25       -18.3449    1.0364   60.7510 H       1  ZINC001401207732    0.0800
     26 H26       -17.2865    2.4559   60.5685 H       1  ZINC001401207732    0.0800
     27 H27       -17.2585    1.1619   59.3466 H       1  ZINC001401207732    0.1000
     28 H28       -13.4844   -2.4611   59.9551 H       1  ZINC001401207732    0.0600
     29 H29       -14.7112   -2.6950   61.2234 H       1  ZINC001401207732    0.0800
     30 H30       -14.3586   -4.0071   60.0735 H       1  ZINC001401207732    0.0900
     31 H31       -17.2427   -3.0103   56.4639 H       1  ZINC001401207732    0.0700
     32 H32       -17.8427   -2.3996   58.0245 H       1  ZINC001401207732    0.0700
     33 H33       -16.6686   -1.4450   57.0871 H       1  ZINC001401207732    0.0600
     34 H34       -13.8610   -2.5211   57.4814 H       1  ZINC001401207732    0.0800
     35 H35       -14.9219   -2.9988   56.1343 H       1  ZINC001401207732    0.0500
     36 H36       -14.7073   -5.2663   56.8223 H       1  ZINC001401207732    0.3600
     37 H37       -12.7370   -3.8550   55.7286 H       1  ZINC001401207732    0.1100
     38 H38       -12.6831   -5.6177   55.9709 H       1  ZINC001401207732    0.0800
     39 H39        -8.3184   -3.1378   59.6462 H       1  ZINC001401207732    0.1000
     40 H40        -8.6623   -0.6914   59.4336 H       1  ZINC001401207732    0.0700
     41 H41        -8.8456   -1.5014   57.8593 H       1  ZINC001401207732    0.0600
     42 H42       -10.2864   -0.9778   58.7638 H       1  ZINC001401207732    0.0600
     43 H43        -9.9698   -3.5318   61.4535 H       1  ZINC001401207732    0.0600
     44 H44        -9.3189   -1.8771   61.5325 H       1  ZINC001401207732    0.0700
     45 H45       -10.9429   -2.1635   60.8627 H       1  ZINC001401207732    0.0600
     46 H46       -14.3754    0.7143   63.8017 H       1  ZINC001401207732    0.2000
@<TRIPOS>BOND
     1     1     2    1
     2     1    25    1
     3     1    26    1
     4     1    27    1
     5     2    24    1
     6     2     3    2
     7     3     4    1
     8     3    22    1
     9     4     5    2
    10     4     6   am
    11     6     7    1
    12     6     8    1
    13     7    28    1
    14     7    29    1
    15     7    30    1
    16     8     9    1
    17     8    10    1
    18     8    11    1
    19    10    31    1
    20    10    32    1
    21    10    33    1
    22    11    12    1
    23    11    34    1
    24    11    35    1
    25    12    13    1
    26    12    36    1
    27    13    14    1
    28    13    37    1
    29    13    38    1
    30    14    21    1
    31    14    15    2
    32    15    16    1
    33    16    17    1
    34    16    20    2
    35    17    18    1
    36    17    19    1
    37    17    39    1
    38    18    40    1
    39    18    41    1
    40    18    42    1
    41    19    43    1
    42    19    44    1
    43    19    45    1
    44    20    21    1
    45    22    23    1
    46    23    24    2
    47    23    46    1
@<TRIPOS>SUBSTRUCTURE
     1 ZINC001401207732        1 TEMP              0 ****  ****    0 ROOT


##########                                Name:    ZINC001002468398
##########                DOCK_Rotatable_Bonds:                   7
##########                         Heavy_Atoms:                  24
##########                    Molecular_Weight:             341.358
##########                DOCK_Rotatable_Bonds:                   7
##########                       Formal_Charge:           0.0100001
##########                     HBond_Acceptors:                   8
##########                        HBond_Donors:                   0
##########                         Heavy_Atoms:                  24
##########                          Grid_Score:          -30.630644
##########                     Grid_vdw_energy:          -30.466143
##########                      Grid_es_energy:           -0.164501
##########           Internal_energy_repulsive:           16.767279

@<TRIPOS>MOLECULE
ZINC001002468398
 45 47 1 0 0
SMALL
USER_CHARGES


@<TRIPOS>ATOM
      1 C1         -7.4225    3.4085   51.7274 C.3     1  ZINC001002468398   -0.1400
      2 C2         -8.5552    2.4214   52.0163 C.3     1  ZINC001002468398   -0.0500
      3 C3         -8.0684    1.0149   51.7799 C.2     1  ZINC001002468398    0.0500
      4 C4         -8.4047   -0.0902   52.4994 C.2     1  ZINC001002468398   -0.0800
      5 C5         -9.3148   -0.1376   53.6581 C.2     1  ZINC001002468398    0.6000
      6 O6         -9.0963    0.5578   54.6316 O.2     1  ZINC001002468398   -0.5300
      7 N7        -10.3889   -0.9515   53.6386 N.am    1  ZINC001002468398   -0.6000
      8 C8        -10.6519   -1.7891   52.4659 C.3     1  ZINC001002468398    0.0900
      9 C9        -11.2932   -0.9984   54.7901 C.3     1  ZINC001002468398    0.1000
     10 C10       -11.2070   -2.3759   55.4503 C.3     1  ZINC001002468398    0.1300
     11 H11       -10.2980   -2.8846   55.1292 H       1  ZINC001002468398    0.0800
     12 C12       -12.4425   -3.2187   55.0697 C.3     1  ZINC001002468398   -0.1300
     13 C13       -12.7636   -3.9780   56.3841 C.3     1  ZINC001002468398   -0.1300
     14 C14       -12.3994   -2.9175   57.4529 C.3     1  ZINC001002468398    0.1000
     15 N15       -11.2080   -2.2302   56.9134 N.am    1  ZINC001002468398   -0.6100
     16 C16       -10.2803   -1.5781   57.6417 C.2     1  ZINC001002468398    0.5600
     17 O17        -9.3392   -1.0478   57.0903 O.2     1  ZINC001002468398   -0.5100
     18 C18       -10.4125   -1.5076   59.1413 C.3     1  ZINC001002468398   -0.2000
     19 H19       -11.2892   -0.9763   59.5115 H       1  ZINC001002468398    0.1500
     20 C20        -9.1243   -1.4014   59.9598 C.3     1  ZINC001002468398   -0.1500
     21 C21        -9.9204   -2.7088   59.9511 C.3     1  ZINC001002468398    0.2300
     22 F22       -10.6298   -3.0409   61.1102 F       1  ZINC001002468398   -0.1500
     23 F23        -9.3817   -3.7884   59.2429 F       1  ZINC001002468398   -0.1400
     24 N24        -7.7431   -1.1435   51.9475 N.2     1  ZINC001002468398   -0.4600
     25 C25        -7.0399   -0.7087   50.9452 C.2     1  ZINC001002468398    0.1700
     26 O26        -7.2250    0.6127   50.8159 O.3     1  ZINC001002468398   -0.2000
     27 H27        -6.5811    3.1995   52.3880 H       1  ZINC001002468398    0.0600
     28 H28        -7.1049    3.3035   50.6900 H       1  ZINC001002468398    0.0600
     29 H29        -7.7747    4.4258   51.8984 H       1  ZINC001002468398    0.0700
     30 H30        -8.8729    2.5264   53.0537 H       1  ZINC001002468398    0.1200
     31 H31        -9.3967    2.6304   51.3557 H       1  ZINC001002468398    0.0900
     32 H32        -9.8359   -2.5003   52.3369 H       1  ZINC001002468398    0.0700
     33 H33       -11.5868   -2.3311   52.6088 H       1  ZINC001002468398    0.0700
     34 H34       -10.7287   -1.1596   51.5794 H       1  ZINC001002468398    0.0700
     35 H35       -11.0054   -0.2320   55.5097 H       1  ZINC001002468398    0.0900
     36 H36       -12.3154   -0.8186   54.4569 H       1  ZINC001002468398    0.0900
     37 H37       -13.2745   -2.5756   54.7827 H       1  ZINC001002468398    0.1000
     38 H38       -12.2005   -3.9182   54.2695 H       1  ZINC001002468398    0.0800
     39 H39       -13.8207   -4.2385   56.4366 H       1  ZINC001002468398    0.0900
     40 H40       -12.1387   -4.8653   56.4855 H       1  ZINC001002468398    0.0800
     41 H41       -13.2200   -2.2117   57.5821 H       1  ZINC001002468398    0.0800
     42 H42       -12.1605   -3.4003   58.4005 H       1  ZINC001002468398    0.0800
     43 H43        -8.1811   -1.3825   59.4137 H       1  ZINC001002468398    0.1300
     44 H44        -9.1535   -0.8005   60.8688 H       1  ZINC001002468398    0.1400
     45 H45        -6.4094   -1.3165   50.3132 H       1  ZINC001002468398    0.2600
@<TRIPOS>BOND
     1     1     2    1
     2     1    27    1
     3     1    28    1
     4     1    29    1
     5     2     3    1
     6     2    30    1
     7     2    31    1
     8     3    26    1
     9     3     4    2
    10     4     5    1
    11     4    24    1
    12     5     6    2
    13     5     7   am
    14     7     8    1
    15     7     9    1
    16     8    32    1
    17     8    33    1
    18     8    34    1
    19     9    10    1
    20     9    35    1
    21     9    36    1
    22    10    11    1
    23    10    15    1
    24    10    12    1
    25    12    13    1
    26    12    37    1
    27    12    38    1
    28    13    14    1
    29    13    39    1
    30    13    40    1
    31    14    15    1
    32    14    41    1
    33    14    42    1
    34    15    16   am
    35    16    17    2
    36    16    18    1
    37    18    19    1
    38    18    21    1
    39    18    20    1
    40    20    21    1
    41    20    43    1
    42    20    44    1
    43    21    22    1
    44    21    23    1
    45    24    25    2
    46    25    26    1
    47    25    45    1
@<TRIPOS>SUBSTRUCTURE
     1 ZINC001002468398        1 TEMP              0 ****  ****    0 ROOT


##########                                Name:    ZINC000151850193
##########                DOCK_Rotatable_Bonds:                  11
##########                         Heavy_Atoms:                  23
##########                    Molecular_Weight:             328.452
##########                DOCK_Rotatable_Bonds:                  11
##########                       Formal_Charge:            0.039999
##########                     HBond_Acceptors:                   6
##########                        HBond_Donors:                   2
##########                         Heavy_Atoms:                  23
##########                          Grid_Score:          -30.593464
##########                     Grid_vdw_energy:          -29.998615
##########                      Grid_es_energy:           -0.594849
##########           Internal_energy_repulsive:           52.344357

@<TRIPOS>MOLECULE
ZINC000151850193
 55 55 1 0 0
SMALL
USER_CHARGES


@<TRIPOS>ATOM
      1 C1        -14.4345   -2.8693   59.9429 C.3     1  ZINC000151850193   -0.1500
      2 C2        -13.9977   -1.9378   58.8104 C.3     1  ZINC000151850193   -0.1000
      3 C3        -12.8200   -2.5638   58.0606 C.3     1  ZINC000151850193   -0.0800
      4 C4        -13.1410   -3.9520   57.5032 C.3     1  ZINC000151850193   -0.1000
      5 C5        -14.3867   -3.8709   56.6186 C.3     1  ZINC000151850193   -0.1500
      6 C6        -12.1721   -1.6202   57.0336 C.3     1  ZINC000151850193    0.1400
      7 H7        -12.8483   -0.8516   56.6593 H       1  ZINC000151850193    0.1000
      8 N8        -11.4576   -2.3198   55.9630 N.am    1  ZINC000151850193   -0.7000
      9 C9        -11.6600   -1.9701   54.6772 C.2     1  ZINC000151850193    0.5200
     10 O10       -12.4349   -1.0772   54.4065 O.2     1  ZINC000151850193   -0.5300
     11 C11       -10.9237   -2.6886   53.5760 C.3     1  ZINC000151850193   -0.1500
     12 C12       -11.9102   -3.0808   52.4743 C.3     1  ZINC000151850193    0.1500
     13 N13       -11.9323   -2.0386   51.4449 N.am    1  ZINC000151850193   -0.7100
     14 C14       -13.0822   -1.7485   50.8044 C.2     1  ZINC000151850193    0.6500
     15 O15       -14.1000   -2.3523   51.0797 O.2     1  ZINC000151850193   -0.5600
     16 O16       -13.1028   -0.7896   49.8595 O.3     1  ZINC000151850193   -0.3700
     17 C17       -14.3865   -0.4932   49.2492 C.3     1  ZINC000151850193    0.1400
     18 C18       -15.3776   -0.0593   50.3310 C.3     1  ZINC000151850193   -0.1800
     19 C19       -14.2182    0.6352   48.2297 C.3     1  ZINC000151850193   -0.1400
     20 C20       -14.9166   -1.7431   48.5436 C.3     1  ZINC000151850193   -0.1800
     21 C21       -11.2588   -1.1358   58.1721 C.3     1  ZINC000151850193   -0.1700
     22 C22       -11.4935   -2.5028   58.8362 C.3     1  ZINC000151850193    0.0700
     23 H23       -11.6220   -2.4468   59.9173 H       1  ZINC000151850193    0.0800
     24 O24       -10.5507   -3.5010   58.4406 O.3     1  ZINC000151850193   -0.3700
     25 C25        -9.4520   -3.6525   59.3417 C.3     1  ZINC000151850193    0.0300
     26 H26       -14.7687   -3.8185   59.5240 H       1  ZINC000151850193    0.0600
     27 H27       -13.5937   -3.0442   60.6141 H       1  ZINC000151850193    0.0600
     28 H28       -15.2522   -2.4087   60.4972 H       1  ZINC000151850193    0.0600
     29 H29       -14.8292   -1.7887   58.1214 H       1  ZINC000151850193    0.0700
     30 H30       -13.6941   -0.9773   59.2267 H       1  ZINC000151850193    0.0700
     31 H31       -12.2981   -4.3099   56.9120 H       1  ZINC000151850193    0.0700
     32 H32       -13.3250   -4.6408   58.3277 H       1  ZINC000151850193    0.0700
     33 H33       -15.2452   -3.5831   57.2256 H       1  ZINC000151850193    0.0500
     34 H34       -14.2292   -3.1279   55.8366 H       1  ZINC000151850193    0.0500
     35 H35       -14.5732   -4.8436   56.1635 H       1  ZINC000151850193    0.0500
     36 H36       -10.8388   -3.0347   56.1795 H       1  ZINC000151850193    0.4100
     37 H37       -10.1588   -2.0317   53.1617 H       1  ZINC000151850193    0.1000
     38 H38       -10.4531   -3.5855   53.9786 H       1  ZINC000151850193    0.1000
     39 H39       -11.5999   -4.0257   52.0282 H       1  ZINC000151850193    0.0800
     40 H40       -12.9070   -3.1908   52.9014 H       1  ZINC000151850193    0.0800
     41 H41       -11.1195   -1.5575   51.2243 H       1  ZINC000151850193    0.4100
     42 H42       -15.0000    0.8311   50.8337 H       1  ZINC000151850193    0.0600
     43 H43       -16.3412    0.1631   49.8728 H       1  ZINC000151850193    0.0700
     44 H44       -15.4976   -0.8632   51.0573 H       1  ZINC000151850193    0.0900
     45 H45       -13.5121    0.3261   47.4590 H       1  ZINC000151850193    0.0700
     46 H46       -15.1817    0.8577   47.7715 H       1  ZINC000151850193    0.0800
     47 H47       -13.8405    1.5256   48.7323 H       1  ZINC000151850193    0.0700
     48 H48       -15.0365   -2.5469   49.2699 H       1  ZINC000151850193    0.0900
     49 H49       -15.8803   -1.5206   48.0854 H       1  ZINC000151850193    0.0700
     50 H50       -14.2105   -2.0522   47.7728 H       1  ZINC000151850193    0.0600
     51 H51       -10.2263   -0.9718   57.8638 H       1  ZINC000151850193    0.0800
     52 H52       -11.6710   -0.2995   58.7367 H       1  ZINC000151850193    0.1000
     53 H53        -8.9102   -2.7097   59.4157 H       1  ZINC000151850193    0.0400
     54 H54        -9.8256   -3.9351   60.3259 H       1  ZINC000151850193    0.0400
     55 H55        -8.7822   -4.4283   58.9708 H       1  ZINC000151850193    0.0900
@<TRIPOS>BOND
     1     1     2    1
     2     1    26    1
     3     1    27    1
     4     1    28    1
     5     2     3    1
     6     2    29    1
     7     2    30    1
     8     3    22    1
     9     3     4    1
    10     3     6    1
    11     4     5    1
    12     4    31    1
    13     4    32    1
    14     5    33    1
    15     5    34    1
    16     5    35    1
    17     6     7    1
    18     6     8    1
    19     6    21    1
    20     8     9   am
    21     8    36    1
    22     9    10    2
    23     9    11    1
    24    11    12    1
    25    11    37    1
    26    11    38    1
    27    12    13    1
    28    12    39    1
    29    12    40    1
    30    13    14   am
    31    13    41    1
    32    14    15    2
    33    14    16    1
    34    16    17    1
    35    17    18    1
    36    17    19    1
    37    17    20    1
    38    18    42    1
    39    18    43    1
    40    18    44    1
    41    19    45    1
    42    19    46    1
    43    19    47    1
    44    20    48    1
    45    20    49    1
    46    20    50    1
    47    21    22    1
    48    21    51    1
    49    21    52    1
    50    22    23    1
    51    22    24    1
    52    24    25    1
    53    25    53    1
    54    25    54    1
    55    25    55    1
@<TRIPOS>SUBSTRUCTURE
     1 ZINC000151850193        1 TEMP              0 ****  ****    0 ROOT


##########                                Name:    ZINC000055987960
##########                DOCK_Rotatable_Bonds:                   6
##########                         Heavy_Atoms:                  28
##########                    Molecular_Weight:             404.868
##########                DOCK_Rotatable_Bonds:                   6
##########                       Formal_Charge:          0.00999941
##########                     HBond_Acceptors:                   7
##########                        HBond_Donors:                   1
##########                         Heavy_Atoms:                  28
##########                          Grid_Score:          -30.548172
##########                     Grid_vdw_energy:          -29.614292
##########                      Grid_es_energy:           -0.933880
##########           Internal_energy_repulsive:           15.723351

@<TRIPOS>MOLECULE
ZINC000055987960
 50 52 1 0 0
SMALL
USER_CHARGES


@<TRIPOS>ATOM
      1 C1         -3.6965    3.1841   52.8101 C.3     1  ZINC000055987960   -0.1800
      2 C2         -3.3127    4.2772   53.8095 C.3     1  ZINC000055987960    0.0700
      3 H3         -2.6583    5.0010   53.3238 H       1  ZINC000055987960    0.1200
      4 C4         -4.5788    4.9842   54.3064 C.3     1  ZINC000055987960    0.0800
      5 N5         -5.3547    4.0317   55.1164 N.am    1  ZINC000055987960   -0.6100
      6 C6         -6.6668    3.8306   54.8834 C.2     1  ZINC000055987960    0.5700
      7 O7         -7.2266    4.4406   53.9929 O.2     1  ZINC000055987960   -0.5300
      8 C8         -7.4243    2.8700   55.7091 C.ar    1  ZINC000055987960   -0.1500
      9 C9         -7.9756    1.7265   55.1247 C.ar    1  ZINC000055987960   -0.0700
     10 C10        -8.6813    0.8323   55.8979 C.ar    1  ZINC000055987960   -0.1500
     11 C11        -8.8458    1.0660   57.2596 C.ar    1  ZINC000055987960    0.1700
     12 N12        -9.5607    0.1580   58.0398 N.am    1  ZINC000055987960   -0.6700
     13 C13       -10.6855    0.5503   58.6700 C.2     1  ZINC000055987960    0.5200
     14 O14       -11.0760    1.6931   58.5586 O.2     1  ZINC000055987960   -0.5000
     15 C15       -11.4582   -0.4310   59.5133 C.3     1  ZINC000055987960   -0.1100
     16 C16       -11.0097   -1.8330   59.1906 C.ar    1  ZINC000055987960   -0.1000
     17 C17       -11.5718   -2.5114   58.1231 C.ar    1  ZINC000055987960    0.1300
     18 F18       -12.5230   -1.9171   57.3699 F       1  ZINC000055987960   -0.1300
     19 C19       -11.1584   -3.7997   57.8274 C.ar    1  ZINC000055987960   -0.1500
     20 C20       -10.1853   -4.4070   58.5977 C.ar    1  ZINC000055987960   -0.0700
     21 C21        -9.6237   -3.7294   59.6640 C.ar    1  ZINC000055987960   -0.1200
     22 C22       -10.0318   -2.4406   59.9576 C.ar    1  ZINC000055987960    0.0000
     23 Cl23       -9.3256   -1.5904   61.2964 Cl      1  ZINC000055987960   -0.0500
     24 C24        -8.2982    2.2034   57.8445 C.ar    1  ZINC000055987960   -0.1200
     25 C25        -7.5870    3.0990   57.0781 C.ar    1  ZINC000055987960   -0.0500
     26 C26        -4.6556    3.3049   56.1880 C.3     1  ZINC000055987960    0.0600
     27 C27        -3.3857    2.6796   55.5994 C.3     1  ZINC000055987960    0.0700
     28 H28        -3.6595    1.8952   54.8939 H       1  ZINC000055987960    0.0700
     29 C29        -2.5409    2.0817   56.7262 C.3     1  ZINC000055987960   -0.1500
     30 O30        -2.6330    3.6899   54.9217 O.3     1  ZINC000055987960   -0.3700
     31 H31        -4.3509    2.4606   53.2965 H       1  ZINC000055987960    0.0600
     32 H32        -4.2163    3.6323   51.9633 H       1  ZINC000055987960    0.0700
     33 H33        -2.7960    2.6807   52.4586 H       1  ZINC000055987960    0.0700
     34 H34        -4.3034    5.8451   54.9156 H       1  ZINC000055987960    0.0800
     35 H35        -5.1744    5.3122   53.4545 H       1  ZINC000055987960    0.1000
     36 H36        -7.8486    1.5446   54.0678 H       1  ZINC000055987960    0.1400
     37 H37        -9.1080   -0.0515   55.4469 H       1  ZINC000055987960    0.1300
     38 H38        -9.2484   -0.7560   58.1290 H       1  ZINC000055987960    0.4200
     39 H39       -11.2768   -0.2252   60.5683 H       1  ZINC000055987960    0.1200
     40 H40       -12.5230   -0.3323   59.3018 H       1  ZINC000055987960    0.1200
     41 H41       -11.5969   -4.3297   56.9948 H       1  ZINC000055987960    0.1500
     42 H42        -9.8634   -5.4118   58.3670 H       1  ZINC000055987960    0.1500
     43 H43        -8.8635   -4.2051   60.2657 H       1  ZINC000055987960    0.1400
     44 H44        -8.4281    2.3821   58.9016 H       1  ZINC000055987960    0.1500
     45 H45        -7.1621    3.9818   57.5326 H       1  ZINC000055987960    0.1300
     46 H46        -4.3880    3.9968   56.9867 H       1  ZINC000055987960    0.0800
     47 H47        -5.3021    2.5209   56.5822 H       1  ZINC000055987960    0.1100
     48 H48        -3.1167    1.3146   57.2440 H       1  ZINC000055987960    0.0700
     49 H49        -1.6383    1.6373   56.3069 H       1  ZINC000055987960    0.0700
     50 H50        -2.2661    2.8670   57.4303 H       1  ZINC000055987960    0.0700
@<TRIPOS>BOND
     1     1     2    1
     2     1    31    1
     3     1    32    1
     4     1    33    1
     5     2     3    1
     6     2    30    1
     7     2     4    1
     8     4     5    1
     9     4    34    1
    10     4    35    1
    11     5     6   am
    12     5    26    1
    13     6     7    2
    14     6     8    1
    15     8    25   ar
    16     8     9   ar
    17     9    10   ar
    18     9    36    1
    19    10    11   ar
    20    10    37    1
    21    11    12    1
    22    11    24   ar
    23    12    13   am
    24    12    38    1
    25    13    14    2
    26    13    15    1
    27    15    16    1
    28    15    39    1
    29    15    40    1
    30    16    22   ar
    31    16    17   ar
    32    17    18    1
    33    17    19   ar
    34    19    20   ar
    35    19    41    1
    36    20    21   ar
    37    20    42    1
    38    21    22   ar
    39    21    43    1
    40    22    23    1
    41    24    25   ar
    42    24    44    1
    43    25    45    1
    44    26    27    1
    45    26    46    1
    46    26    47    1
    47    27    28    1
    48    27    29    1
    49    27    30    1
    50    29    48    1
    51    29    49    1
    52    29    50    1
@<TRIPOS>SUBSTRUCTURE
     1 ZINC000055987960        1 TEMP              0 ****  ****    0 ROOT


##########                                Name:    ZINC000944933040
##########                DOCK_Rotatable_Bonds:                   4
##########                         Heavy_Atoms:                  26
##########                    Molecular_Weight:             354.449
##########                DOCK_Rotatable_Bonds:                   4
##########                       Formal_Charge:           0.0100002
##########                     HBond_Acceptors:                   5
##########                        HBond_Donors:                   0
##########                         Heavy_Atoms:                  26
##########                          Grid_Score:          -30.546179
##########                     Grid_vdw_energy:          -29.385225
##########                      Grid_es_energy:           -1.160954
##########           Internal_energy_repulsive:            8.211100

@<TRIPOS>MOLECULE
ZINC000944933040
 52 57 1 0 0
SMALL
USER_CHARGES


@<TRIPOS>ATOM
      1 O1        -14.2037   -3.0340   61.6232 O.2     1  ZINC000944933040   -0.5200
      2 C2        -13.5374   -2.4821   60.7685 C.2     1  ZINC000944933040    0.6400
      3 C3        -12.3930   -1.7067   61.1424 C.1     1  ZINC000944933040   -0.2200
      4 C4        -11.4548   -1.0711   61.4489 C.1     1  ZINC000944933040   -0.0400
      5 C5        -10.2785   -0.2740   61.8332 C.3     1  ZINC000944933040   -0.0700
      6 C6        -10.5182    1.1705   62.2768 C.3     1  ZINC000944933040   -0.1600
      7 C7        -10.1347    0.1073   63.3080 C.3     1  ZINC000944933040   -0.1600
      8 N8        -13.8729   -2.6048   59.4689 N.am    1  ZINC000944933040   -0.6000
      9 C9        -15.0482   -3.3924   59.0741 C.3     1  ZINC000944933040    0.1100
     10 C10       -14.6092   -4.4627   58.0677 C.3     1  ZINC000944933040   -0.1200
     11 C11       -13.8353   -3.7951   56.9336 C.3     1  ZINC000944933040   -0.0900
     12 C12       -13.5365   -4.7342   55.7568 C.3     1  ZINC000944933040    0.1200
     13 N13       -13.9007   -3.5954   54.8904 N.am    1  ZINC000944933040   -0.6400
     14 C14       -13.6007   -3.2373   53.6261 C.2     1  ZINC000944933040    0.5500
     15 O15       -12.8744   -3.9382   52.9536 O.2     1  ZINC000944933040   -0.5300
     16 C16       -14.1675   -1.9662   53.0481 C.3     1  ZINC000944933040   -0.1300
     17 H17       -14.4001   -1.2539   53.8398 H       1  ZINC000944933040    0.1100
     18 C18       -15.4244   -2.2652   52.1918 C.3     1  ZINC000944933040   -0.1300
     19 C19       -15.0003   -1.7764   50.7743 C.3     1  ZINC000944933040    0.0900
     20 H20       -15.5579   -2.2099   49.9442 H       1  ZINC000944933040    0.1300
     21 O21       -13.5631   -2.0619   50.7918 O.3     1  ZINC000944933040   -0.3600
     22 C22       -13.1818   -1.3416   52.0156 C.3     1  ZINC000944933040    0.1200
     23 H23       -12.1245   -1.3820   52.2774 H       1  ZINC000944933040    0.1400
     24 C24       -13.7426    0.0813   51.7178 C.3     1  ZINC000944933040   -0.2000
     25 H25       -13.7294    0.8185   52.5205 H       1  ZINC000944933040    0.1200
     26 C26       -13.7629    0.5342   50.2564 C.3     1  ZINC000944933040   -0.1300
     27 C27       -15.0201   -0.2203   50.8521 C.3     1  ZINC000944933040   -0.2000
     28 H28       -15.9682    0.3038   50.9726 H       1  ZINC000944933040    0.1300
     29 C29       -14.7262   -3.0063   55.9637 C.3     1  ZINC000944933040    0.1100
     30 C30       -12.6164   -3.0129   57.4165 C.3     1  ZINC000944933040   -0.1100
     31 C31       -13.0719   -1.9475   58.4277 C.3     1  ZINC000944933040    0.1100
     32 H32        -9.3655   -0.4850   61.2766 H       1  ZINC000944933040    0.1400
     33 H33        -9.7628    1.9103   62.0117 H       1  ZINC000944933040    0.1100
     34 H34       -11.5469    1.5306   62.2840 H       1  ZINC000944933040    0.1000
     35 H35       -10.9111   -0.2320   63.9936 H       1  ZINC000944933040    0.1000
     36 H36        -9.1269    0.1476   63.7214 H       1  ZINC000944933040    0.1100
     37 H37       -15.4787   -3.8720   59.9531 H       1  ZINC000944933040    0.0900
     38 H38       -15.7881   -2.7385   58.6127 H       1  ZINC000944933040    0.0800
     39 H39       -13.9694   -5.1910   58.5662 H       1  ZINC000944933040    0.0800
     40 H40       -15.4880   -4.9647   57.6631 H       1  ZINC000944933040    0.0900
     41 H41       -12.4890   -5.0260   55.6823 H       1  ZINC000944933040    0.0800
     42 H42       -14.2214   -5.5790   55.6837 H       1  ZINC000944933040    0.0900
     43 H43       -15.6407   -3.3334   52.1831 H       1  ZINC000944933040    0.0800
     44 H44       -16.2824   -1.6993   52.5547 H       1  ZINC000944933040    0.0900
     45 H45       -13.8790    1.6007   50.0632 H       1  ZINC000944933040    0.1000
     46 H46       -13.1226   -0.0019   49.5559 H       1  ZINC000944933040    0.1000
     47 H47       -15.7645   -3.3377   55.9520 H       1  ZINC000944933040    0.0900
     48 H48       -14.6241   -1.9249   56.0537 H       1  ZINC000944933040    0.0800
     49 H49       -11.9119   -3.6941   57.8938 H       1  ZINC000944933040    0.0800
     50 H50       -12.1362   -2.5261   56.5678 H       1  ZINC000944933040    0.0800
     51 H51       -13.6724   -1.1936   57.9187 H       1  ZINC000944933040    0.0700
     52 H52       -12.1993   -1.4776   58.8815 H       1  ZINC000944933040    0.1000
@<TRIPOS>BOND
     1     1     2    2
     2     2     3    1
     3     2     8   am
     4     3     4    3
     5     4     5    1
     6     5     7    1
     7     5     6    1
     8     5    32    1
     9     6     7    1
    10     6    33    1
    11     6    34    1
    12     7    35    1
    13     7    36    1
    14     8    31    1
    15     8     9    1
    16     9    10    1
    17     9    37    1
    18     9    38    1
    19    10    11    1
    20    10    39    1
    21    10    40    1
    22    11    29    1
    23    11    12    1
    24    11    30    1
    25    12    13    1
    26    12    41    1
    27    12    42    1
    28    13    14   am
    29    13    29    1
    30    14    15    2
    31    14    16    1
    32    16    17    1
    33    16    22    1
    34    16    18    1
    35    18    19    1
    36    18    43    1
    37    18    44    1
    38    19    20    1
    39    19    27    1
    40    19    21    1
    41    21    22    1
    42    22    23    1
    43    22    24    1
    44    24    25    1
    45    24    27    1
    46    24    26    1
    47    26    27    1
    48    26    45    1
    49    26    46    1
    50    27    28    1
    51    29    47    1
    52    29    48    1
    53    30    31    1
    54    30    49    1
    55    30    50    1
    56    31    51    1
    57    31    52    1
@<TRIPOS>SUBSTRUCTURE
     1 ZINC000944933040        1 TEMP              0 ****  ****    0 ROOT


##########                                Name:    ZINC000441887161
##########                DOCK_Rotatable_Bonds:                   6
##########                         Heavy_Atoms:                  27
##########                    Molecular_Weight:             383.514
##########                DOCK_Rotatable_Bonds:                   6
##########                       Formal_Charge:          -0.0300002
##########                     HBond_Acceptors:                   6
##########                        HBond_Donors:                   1
##########                         Heavy_Atoms:                  27
##########                          Grid_Score:          -30.545242
##########                     Grid_vdw_energy:          -29.927340
##########                      Grid_es_energy:           -0.617903
##########           Internal_energy_repulsive:           18.099245

@<TRIPOS>MOLECULE
ZINC000441887161
 52 54 1 0 0
SMALL
USER_CHARGES


@<TRIPOS>ATOM
      1 C1        -14.6365   -1.5459   49.7948 C.3     1  ZINC000441887161   -0.1200
      2 C2        -14.1073   -1.8260   51.1777 C.ar    1  ZINC000441887161   -0.0700
      3 C3        -14.9660   -1.8199   52.2607 C.ar    1  ZINC000441887161   -0.1200
      4 C4        -14.4804   -2.0770   53.5294 C.ar    1  ZINC000441887161   -0.0900
      5 C5        -13.1364   -2.3405   53.7147 C.ar    1  ZINC000441887161   -0.1100
      6 C6        -12.6070   -2.6203   55.0977 C.3     1  ZINC000441887161    0.1900
      7 H7        -11.7986   -3.3489   55.0368 H       1  ZINC000441887161    0.1000
      8 C8        -12.0791   -1.3231   55.7136 C.3     1  ZINC000441887161    0.1000
      9 N9        -13.0569   -0.2516   55.5083 N.pl3   1  ZINC000441887161   -0.4600
     10 C10       -12.9779    0.7536   54.5826 C.2     1  ZINC000441887161   -0.0500
     11 C11       -14.0796    1.5127   54.7367 C.2     1  ZINC000441887161   -0.0200
     12 N12       -14.8112    0.9854   55.7295 N.2     1  ZINC000441887161   -0.4900
     13 C13       -14.2073   -0.0746   56.1931 C.2     1  ZINC000441887161    0.1800
     14 N14       -13.6844   -3.1550   55.9340 N.am    1  ZINC000441887161   -1.1100
     15 S15       -13.3837   -4.4138   56.9671 S.o2    1  ZINC000441887161    2.6900
     16 O16       -14.5666   -4.5955   57.7332 O.2     1  ZINC000441887161   -0.9600
     17 O17       -12.7991   -5.4450   56.1834 O.2     1  ZINC000441887161   -0.9500
     18 C18       -12.1389   -3.8784   58.0932 C.ar    1  ZINC000441887161   -0.6800
     19 C19       -10.8822   -4.4526   58.0585 C.ar    1  ZINC000441887161   -0.0300
     20 C20        -9.9055   -4.0326   58.9422 C.ar    1  ZINC000441887161   -0.1300
     21 C21       -10.1855   -3.0379   59.8601 C.ar    1  ZINC000441887161   -0.0200
     22 C22        -9.1211   -2.5803   60.8237 C.3     1  ZINC000441887161   -0.1300
     23 C23       -11.4423   -2.4625   59.8940 C.ar    1  ZINC000441887161   -0.1000
     24 C24       -11.7475   -1.3777   60.8945 C.3     1  ZINC000441887161   -0.1200
     25 C25       -12.4175   -2.8798   59.0080 C.ar    1  ZINC000441887161   -0.0100
     26 C26       -12.2776   -2.3481   52.6312 C.ar    1  ZINC000441887161   -0.0700
     27 C27       -10.8122   -2.6359   52.8332 C.3     1  ZINC000441887161   -0.1300
     28 C28       -12.7637   -2.0948   51.3624 C.ar    1  ZINC000441887161   -0.1200
     29 H29       -14.9463   -2.4809   49.3280 H       1  ZINC000441887161    0.0700
     30 H30       -15.4912   -0.8729   49.8623 H       1  ZINC000441887161    0.0700
     31 H31       -13.8547   -1.0813   49.1938 H       1  ZINC000441887161    0.0700
     32 H32       -16.0163   -1.6140   52.1159 H       1  ZINC000441887161    0.1200
     33 H33       -15.1514   -2.0715   54.3757 H       1  ZINC000441887161    0.1200
     34 H34       -11.9174   -1.4675   56.7819 H       1  ZINC000441887161    0.1100
     35 H35       -11.1371   -1.0515   55.2370 H       1  ZINC000441887161    0.1000
     36 H36       -12.1845    0.9084   53.8664 H       1  ZINC000441887161    0.1700
     37 H37       -14.3300    2.3919   54.1617 H       1  ZINC000441887161    0.1600
     38 H38       -14.5650   -0.7023   56.9958 H       1  ZINC000441887161    0.2000
     39 H39       -14.5740   -2.7715   55.8827 H       1  ZINC000441887161    0.4200
     40 H40       -10.6633   -5.2298   57.3412 H       1  ZINC000441887161    0.1300
     41 H41        -8.9237   -4.4818   58.9154 H       1  ZINC000441887161    0.1300
     42 H42        -8.5578   -1.7595   60.3798 H       1  ZINC000441887161    0.0800
     43 H43        -9.5890   -2.2417   61.7481 H       1  ZINC000441887161    0.0800
     44 H44        -8.4465   -3.4087   61.0401 H       1  ZINC000441887161    0.0700
     45 H45       -11.5142   -0.4059   60.4594 H       1  ZINC000441887161    0.0800
     46 H46       -12.8045   -1.4135   61.1580 H       1  ZINC000441887161    0.0700
     47 H47       -11.1446   -1.5291   61.7899 H       1  ZINC000441887161    0.0700
     48 H48       -13.3992   -2.4303   59.0346 H       1  ZINC000441887161    0.1400
     49 H49       -10.6374   -3.7084   52.7473 H       1  ZINC000441887161    0.0800
     50 H50       -10.2309   -2.1112   52.0750 H       1  ZINC000441887161    0.0700
     51 H51       -10.5083   -2.2964   53.8234 H       1  ZINC000441887161    0.0600
     52 H52       -12.0928   -2.1007   50.5160 H       1  ZINC000441887161    0.1300
@<TRIPOS>BOND
     1     1     2    1
     2     1    29    1
     3     1    30    1
     4     1    31    1
     5     2    28   ar
     6     2     3   ar
     7     3     4   ar
     8     3    32    1
     9     4     5   ar
    10     4    33    1
    11     5     6    1
    12     5    26   ar
    13     6     7    1
    14     6     8    1
    15     6    14    1
    16     8     9    1
    17     8    34    1
    18     8    35    1
    19     9    13    1
    20     9    10    1
    21    10    11    2
    22    10    36    1
    23    11    12    1
    24    11    37    1
    25    12    13    2
    26    13    38    1
    27    14    15   am
    28    14    39    1
    29    15    16    2
    30    15    17    2
    31    15    18    1
    32    18    25   ar
    33    18    19   ar
    34    19    20   ar
    35    19    40    1
    36    20    21   ar
    37    20    41    1
    38    21    22    1
    39    21    23   ar
    40    22    42    1
    41    22    43    1
    42    22    44    1
    43    23    24    1
    44    23    25   ar
    45    24    45    1
    46    24    46    1
    47    24    47    1
    48    25    48    1
    49    26    27    1
    50    26    28   ar
    51    27    49    1
    52    27    50    1
    53    27    51    1
    54    28    52    1
@<TRIPOS>SUBSTRUCTURE
     1 ZINC000441887161        1 TEMP              0 ****  ****    0 ROOT


##########                                Name:    ZINC001018118384
##########                DOCK_Rotatable_Bonds:                   5
##########                         Heavy_Atoms:                  25
##########                    Molecular_Weight:             347.374
##########                DOCK_Rotatable_Bonds:                   5
##########                       Formal_Charge:           0.0299997
##########                     HBond_Acceptors:                   9
##########                        HBond_Donors:                   2
##########                         Heavy_Atoms:                  25
##########                          Grid_Score:          -30.542883
##########                     Grid_vdw_energy:          -29.293793
##########                      Grid_es_energy:           -1.249090
##########           Internal_energy_repulsive:           98.129997

@<TRIPOS>MOLECULE
ZINC001018118384
 46 48 1 0 0
SMALL
USER_CHARGES


@<TRIPOS>ATOM
      1 C1         -9.8816   -2.1329   61.0076 C.3     1  ZINC001018118384   -0.0700
      2 C2        -10.3340   -2.3961   59.5943 C.2     1  ZINC001018118384    0.2200
      3 N3        -11.3358   -3.1525   59.2499 N.2     1  ZINC001018118384   -0.4600
      4 C4        -11.4422   -3.1507   57.8964 C.2     1  ZINC001018118384   -0.0700
      5 C5        -12.4453   -3.8794   57.1007 C.2     1  ZINC001018118384    0.6100
      6 O6        -12.3285   -5.0772   56.9246 O.2     1  ZINC001018118384   -0.5400
      7 N7        -13.4922   -3.2188   56.5680 N.am    1  ZINC001018118384   -0.5900
      8 C8        -13.6436   -1.7710   56.7670 C.3     1  ZINC001018118384    0.0700
      9 C9        -13.8003   -1.0990   55.3993 C.3     1  ZINC001018118384    0.1300
     10 H10       -14.0094   -0.0381   55.5370 H       1  ZINC001018118384    0.1100
     11 N11       -12.5626   -1.2578   54.6318 N.am    1  ZINC001018118384   -0.7000
     12 C12       -11.8788   -0.1707   54.2232 C.2     1  ZINC001018118384    0.6000
     13 O13       -12.2896    0.9411   54.4900 O.2     1  ZINC001018118384   -0.4900
     14 C14       -10.6257   -0.3314   53.4483 C.2     1  ZINC001018118384    0.0300
     15 C15       -10.1925   -1.4709   52.8383 C.2     1  ZINC001018118384   -0.2300
     16 C16        -8.9565   -1.0940   52.2418 C.2     1  ZINC001018118384    0.4800
     17 O17        -8.2093   -1.8007   51.5859 O.2     1  ZINC001018118384   -0.5200
     18 N18        -8.7833    0.2067   52.5517 N.am    1  ZINC001018118384   -0.4500
     19 C19        -7.6322    1.0135   52.1389 C.3     1  ZINC001018118384    0.1100
     20 O20        -9.7090    0.6192   53.2114 O.3     1  ZINC001018118384    0.0000
     21 C21       -14.9585   -1.7540   54.6432 C.3     1  ZINC001018118384   -0.1300
     22 C22       -14.6510   -3.2366   54.4207 C.3     1  ZINC001018118384   -0.1300
     23 C23       -14.5007   -3.9317   55.7721 C.3     1  ZINC001018118384    0.1400
     24 H24       -15.4541   -3.9138   56.3003 H       1  ZINC001018118384    0.0700
     25 C25       -14.0608   -5.3813   55.5572 C.3     1  ZINC001018118384   -0.1400
     26 C26       -10.4511   -2.3508   57.4074 C.2     1  ZINC001018118384    0.0400
     27 N27        -9.7657   -1.8775   58.4747 N.pl3   1  ZINC001018118384   -0.5600
     28 H28       -10.4061   -1.2620   61.4007 H       1  ZINC001018118384    0.0900
     29 H29       -10.1037   -3.0012   61.6278 H       1  ZINC001018118384    0.1000
     30 H30        -8.8080   -1.9451   61.0163 H       1  ZINC001018118384    0.0800
     31 H31       -14.5281   -1.5759   57.3734 H       1  ZINC001018118384    0.0800
     32 H32       -12.7599   -1.3768   57.2688 H       1  ZINC001018118384    0.1500
     33 H33       -12.2352   -2.1455   54.4177 H       1  ZINC001018118384    0.4100
     34 H34       -10.6755   -2.4366   52.8139 H       1  ZINC001018118384    0.1900
     35 H35        -7.8440    1.4840   51.1788 H       1  ZINC001018118384    0.0800
     36 H36        -7.4412    1.7833   52.8866 H       1  ZINC001018118384    0.0900
     37 H37        -6.7551    0.3733   52.0443 H       1  ZINC001018118384    0.1100
     38 H38       -15.8741   -1.6566   55.2265 H       1  ZINC001018118384    0.0900
     39 H39       -15.0879   -1.2612   53.6796 H       1  ZINC001018118384    0.0800
     40 H40       -15.4657   -3.6972   53.8617 H       1  ZINC001018118384    0.0800
     41 H41       -13.7224   -3.3352   53.8586 H       1  ZINC001018118384    0.0600
     42 H42       -13.1148   -5.3973   55.0159 H       1  ZINC001018118384    0.0700
     43 H43       -13.9348   -5.8697   56.5235 H       1  ZINC001018118384    0.0800
     44 H44       -14.8191   -5.9093   54.9792 H       1  ZINC001018118384    0.0400
     45 H45       -10.2540   -2.1330   56.3681 H       1  ZINC001018118384    0.1900
     46 H46        -9.0017   -1.2807   58.4448 H       1  ZINC001018118384    0.4300
@<TRIPOS>BOND
     1     1     2    1
     2     1    28    1
     3     1    29    1
     4     1    30    1
     5     2    27    1
     6     2     3    2
     7     3     4    1
     8     4     5    1
     9     4    26    2
    10     5     6    2
    11     5     7   am
    12     7    23    1
    13     7     8    1
    14     8     9    1
    15     8    31    1
    16     8    32    1
    17     9    10    1
    18     9    11    1
    19     9    21    1
    20    11    12   am
    21    11    33    1
    22    12    13    2
    23    12    14    1
    24    14    20    1
    25    14    15    2
    26    15    16    1
    27    15    34    1
    28    16    17    2
    29    16    18   am
    30    18    19    1
    31    18    20    1
    32    19    35    1
    33    19    36    1
    34    19    37    1
    35    21    22    1
    36    21    38    1
    37    21    39    1
    38    22    23    1
    39    22    40    1
    40    22    41    1
    41    23    24    1
    42    23    25    1
    43    25    42    1
    44    25    43    1
    45    25    44    1
    46    26    27    1
    47    26    45    1
    48    27    46    1
@<TRIPOS>SUBSTRUCTURE
     1 ZINC001018118384        1 TEMP              0 ****  ****    0 ROOT


##########                                Name:    ZINC001023148918
##########                DOCK_Rotatable_Bonds:                   6
##########                         Heavy_Atoms:                  25
##########                    Molecular_Weight:             348.402
##########                DOCK_Rotatable_Bonds:                   6
##########                       Formal_Charge:           0.0199999
##########                     HBond_Acceptors:                   8
##########                        HBond_Donors:                   2
##########                         Heavy_Atoms:                  25
##########                          Grid_Score:          -30.480387
##########                     Grid_vdw_energy:          -29.513639
##########                      Grid_es_energy:           -0.966747
##########           Internal_energy_repulsive:           21.300158

@<TRIPOS>MOLECULE
ZINC001023148918
 49 52 1 0 0
SMALL
USER_CHARGES


@<TRIPOS>ATOM
      1 C1        -15.7148   -1.8426   47.4677 C.3     1  ZINC001023148918   -0.0700
      2 C2        -15.2898   -2.0023   48.9047 C.2     1  ZINC001023148918    0.0200
      3 N3        -16.0731   -2.2913   49.9123 N.2     1  ZINC001023148918   -0.2700
      4 N4        -15.4062   -2.3569   51.0080 N.pl3   1  ZINC001023148918   -0.2500
      5 C5        -15.9728   -2.6598   52.3245 C.3     1  ZINC001023148918    0.0800
      6 C6        -14.0877   -2.1013   50.7583 C.2     1  ZINC001023148918   -0.0400
      7 C7        -12.9911   -2.0790   51.7393 C.2     1  ZINC001023148918    0.6000
      8 O8        -11.8547   -1.8423   51.3760 O.2     1  ZINC001023148918   -0.5300
      9 N9        -13.2459   -2.3206   53.0406 N.am    1  ZINC001023148918   -0.7000
     10 C10       -12.1542   -2.2984   54.0172 C.3     1  ZINC001023148918    0.1500
     11 H11       -11.2361   -2.6939   53.5828 H       1  ZINC001023148918    0.1200
     12 C12       -12.5410   -3.0754   55.3004 C.3     1  ZINC001023148918    0.1000
     13 N13       -11.7027   -2.4907   56.3628 N.am    1  ZINC001023148918   -0.6200
     14 C14       -11.3446   -3.1045   57.5080 C.2     1  ZINC001023148918    0.5400
     15 O15       -11.7196   -4.2358   57.7325 O.2     1  ZINC001023148918   -0.5200
     16 C16       -10.4784   -2.3850   58.5094 C.3     1  ZINC001023148918   -0.1400
     17 H17        -9.8349   -1.6600   58.0109 H       1  ZINC001023148918    0.1100
     18 C18        -9.6357   -3.3933   59.3314 C.3     1  ZINC001023148918   -0.1400
     19 C19       -10.1341   -3.1526   60.7880 C.3     1  ZINC001023148918    0.0600
     20 H20        -9.9676   -3.9773   61.4811 H       1  ZINC001023148918    0.1300
     21 C21        -9.5171   -1.7868   61.2141 C.3     1  ZINC001023148918   -0.1500
     22 C22       -10.3462   -0.7652   60.3947 C.3     1  ZINC001023148918   -0.1500
     23 C23       -11.3521   -1.6914   59.5974 C.3     1  ZINC001023148918    0.0900
     24 H24       -12.2602   -1.2013   59.2463 H       1  ZINC001023148918    0.1400
     25 O25       -11.5352   -2.7922   60.5547 O.3     1  ZINC001023148918   -0.3600
     26 C26       -11.3213   -1.1274   55.9657 C.3     1  ZINC001023148918    0.0700
     27 C27       -11.9346   -0.8666   54.5733 C.3     1  ZINC001023148918    0.0900
     28 H28       -12.8840   -0.3386   54.6627 H       1  ZINC001023148918    0.0800
     29 O29       -11.0258   -0.1331   53.7499 O.3     1  ZINC001023148918   -0.5500
     30 C30       -13.9888   -1.8740   49.3966 C.2     1  ZINC001023148918   -0.1800
     31 H31       -15.6586   -2.8069   46.9628 H       1  ZINC001023148918    0.0800
     32 H32       -16.7394   -1.4724   47.4309 H       1  ZINC001023148918    0.0700
     33 H33       -15.0539   -1.1328   46.9701 H       1  ZINC001023148918    0.0800
     34 H34       -16.0135   -3.7403   52.4627 H       1  ZINC001023148918    0.0900
     35 H35       -15.3470   -2.2178   53.0998 H       1  ZINC001023148918    0.1100
     36 H36       -16.9793   -2.2469   52.3906 H       1  ZINC001023148918    0.0900
     37 H37       -14.1521   -2.5094   53.3303 H       1  ZINC001023148918    0.4100
     38 H38       -13.5971   -2.9307   55.5276 H       1  ZINC001023148918    0.0800
     39 H39       -12.3193   -4.1362   55.1828 H       1  ZINC001023148918    0.0900
     40 H40        -9.8424   -4.4161   59.0166 H       1  ZINC001023148918    0.0800
     41 H41        -8.5725   -3.1688   59.2450 H       1  ZINC001023148918    0.0900
     42 H42        -9.6477   -1.6209   62.2835 H       1  ZINC001023148918    0.0800
     43 H43        -8.4632   -1.7369   60.9404 H       1  ZINC001023148918    0.0800
     44 H44       -10.8899   -0.0902   61.0557 H       1  ZINC001023148918    0.0800
     45 H45        -9.7054   -0.2064   59.7126 H       1  ZINC001023148918    0.0800
     46 H46       -11.7141   -0.4083   56.6847 H       1  ZINC001023148918    0.0800
     47 H47       -10.2357   -1.0467   55.9129 H       1  ZINC001023148918    0.0900
     48 H48       -11.2897   -0.0827   52.8209 H       1  ZINC001023148918    0.3900
     49 H49       -13.0965   -1.6406   48.8348 H       1  ZINC001023148918    0.1600
@<TRIPOS>BOND
     1     1     2    1
     2     1    31    1
     3     1    32    1
     4     1    33    1
     5     2    30    1
     6     2     3    2
     7     3     4    1
     8     4     5    1
     9     4     6    1
    10     5    34    1
    11     5    35    1
    12     5    36    1
    13     6     7    1
    14     6    30    2
    15     7     8    2
    16     7     9   am
    17     9    10    1
    18     9    37    1
    19    10    11    1
    20    10    27    1
    21    10    12    1
    22    12    13    1
    23    12    38    1
    24    12    39    1
    25    13    14   am
    26    13    26    1
    27    14    15    2
    28    14    16    1
    29    16    17    1
    30    16    23    1
    31    16    18    1
    32    18    19    1
    33    18    40    1
    34    18    41    1
    35    19    20    1
    36    19    25    1
    37    19    21    1
    38    21    22    1
    39    21    42    1
    40    21    43    1
    41    22    23    1
    42    22    44    1
    43    22    45    1
    44    23    24    1
    45    23    25    1
    46    26    27    1
    47    26    46    1
    48    26    47    1
    49    27    28    1
    50    27    29    1
    51    29    48    1
    52    30    49    1
@<TRIPOS>SUBSTRUCTURE
     1 ZINC001023148918        1 TEMP              0 ****  ****    0 ROOT


##########                                Name:    ZINC000535362552
##########                DOCK_Rotatable_Bonds:                   5
##########                         Heavy_Atoms:                  26
##########                    Molecular_Weight:             416.228
##########                DOCK_Rotatable_Bonds:                   5
##########                       Formal_Charge:         -0.00999981
##########                     HBond_Acceptors:                   6
##########                        HBond_Donors:                   1
##########                         Heavy_Atoms:                  26
##########                          Grid_Score:          -30.447329
##########                     Grid_vdw_energy:          -29.493422
##########                      Grid_es_energy:           -0.953907
##########           Internal_energy_repulsive:            7.658261

@<TRIPOS>MOLECULE
ZINC000535362552
 40 43 1 0 0
SMALL
USER_CHARGES


@<TRIPOS>ATOM
      1 C1        -11.5128    6.3181   64.6900 C.3     1  ZINC000535362552    0.0300
      2 O2        -11.1351    5.1058   63.9859 O.3     1  ZINC000535362552   -0.3400
      3 C3        -10.5662    4.1253   64.7165 C.2     1  ZINC000535362552    0.5500
      4 O4        -10.3899    4.2805   65.9095 O.2     1  ZINC000535362552   -0.4800
      5 C5        -10.1598    2.8708   64.0716 C.2     1  ZINC000535362552   -0.0100
      6 C6        -10.3174    2.5826   62.7528 C.2     1  ZINC000535362552   -0.0900
      7 C7         -9.7732    1.2385   62.5642 C.ar    1  ZINC000535362552   -0.1300
      8 C8         -9.6403    0.3896   61.4630 C.ar    1  ZINC000535362552   -0.0600
      9 C9         -9.0632   -0.8555   61.6282 C.ar    1  ZINC000535362552    0.1200
     10 N10        -8.9254   -1.7134   60.5290 N.am    1  ZINC000535362552   -0.6700
     11 C11        -9.9991   -2.0181   59.7733 C.2     1  ZINC000535362552    0.5200
     12 O12       -11.0845   -1.5496   60.0448 O.2     1  ZINC000535362552   -0.5000
     13 C13        -9.8510   -2.9407   58.5911 C.3     1  ZINC000535362552   -0.1000
     14 H14        -9.1286   -2.5439   57.8777 H       1  ZINC000535362552    0.1300
     15 C15        -9.4524   -4.3643   59.0472 C.3     1  ZINC000535362552    0.0600
     16 O16       -10.1696   -5.2056   58.1281 O.3     1  ZINC000535362552   -0.2900
     17 C17       -11.2900   -4.5567   57.7068 C.ar    1  ZINC000535362552    0.1300
     18 C18       -12.4474   -5.0623   57.1207 C.ar    1  ZINC000535362552   -0.1300
     19 C19       -13.4716   -4.2118   56.7583 C.ar    1  ZINC000535362552   -0.0500
     20 C20       -13.3581   -2.8501   56.9733 C.ar    1  ZINC000535362552   -0.1200
     21 Br21      -14.7633   -1.6893   56.4693 Br      1  ZINC000535362552   -0.0400
     22 C22       -12.2119   -2.3402   57.5594 C.ar    1  ZINC000535362552   -0.0100
     23 C23       -11.1908   -3.1876   57.9251 C.ar    1  ZINC000535362552   -0.1600
     24 C24        -8.6175   -1.2595   62.8856 C.ar    1  ZINC000535362552   -0.0900
     25 C25        -8.7451   -0.4290   63.9767 C.ar    1  ZINC000535362552   -0.0900
     26 C26        -9.3220    0.8273   63.8326 C.ar    1  ZINC000535362552    0.0700
     27 O27        -9.5678    1.8320   64.6973 O.3     1  ZINC000535362552   -0.1700
     28 H28       -10.6281    6.7660   65.1425 H       1  ZINC000535362552    0.0700
     29 H29       -11.9576    7.0227   63.9873 H       1  ZINC000535362552    0.1100
     30 H30       -12.2361    6.0758   65.4685 H       1  ZINC000535362552    0.0700
     31 H31       -10.7564    3.2173   61.9974 H       1  ZINC000535362552    0.1800
     32 H32        -9.9864    0.7037   60.4894 H       1  ZINC000535362552    0.1400
     33 H33        -8.0574   -2.0880   60.3119 H       1  ZINC000535362552    0.4100
     34 H34        -8.3772   -4.5143   58.9495 H       1  ZINC000535362552    0.1200
     35 H35        -9.7772   -4.5466   60.0717 H       1  ZINC000535362552    0.0900
     36 H36       -12.5439   -6.1242   56.9492 H       1  ZINC000535362552    0.1400
     37 H37       -14.3663   -4.6112   56.3041 H       1  ZINC000535362552    0.1400
     38 H38       -12.1187   -1.2777   57.7292 H       1  ZINC000535362552    0.1400
     39 H39        -8.1678   -2.2342   63.0055 H       1  ZINC000535362552    0.1500
     40 H40        -8.3963   -0.7543   64.9457 H       1  ZINC000535362552    0.1500
@<TRIPOS>BOND
     1     1     2    1
     2     1    28    1
     3     1    29    1
     4     1    30    1
     5     2     3    1
     6     3     4    2
     7     3     5    1
     8     5    27    1
     9     5     6    2
    10     6     7    1
    11     6    31    1
    12     7    26   ar
    13     7     8   ar
    14     8     9   ar
    15     8    32    1
    16     9    10    1
    17     9    24   ar
    18    10    11   am
    19    10    33    1
    20    11    12    2
    21    11    13    1
    22    13    14    1
    23    13    23    1
    24    13    15    1
    25    15    16    1
    26    15    34    1
    27    15    35    1
    28    16    17    1
    29    17    23   ar
    30    17    18   ar
    31    18    19   ar
    32    18    36    1
    33    19    20   ar
    34    19    37    1
    35    20    21    1
    36    20    22   ar
    37    22    23   ar
    38    22    38    1
    39    24    25   ar
    40    24    39    1
    41    25    26   ar
    42    25    40    1
    43    26    27    1
@<TRIPOS>SUBSTRUCTURE
     1 ZINC000535362552        1 TEMP              0 ****  ****    0 ROOT


##########                                Name:    ZINC000648570180
##########                DOCK_Rotatable_Bonds:                   4
##########                         Heavy_Atoms:                  25
##########                    Molecular_Weight:             342.484
##########                DOCK_Rotatable_Bonds:                   4
##########                       Formal_Charge:          0.00999971
##########                     HBond_Acceptors:                   5
##########                        HBond_Donors:                   0
##########                         Heavy_Atoms:                  25
##########                          Grid_Score:          -30.429523
##########                     Grid_vdw_energy:          -29.199837
##########                      Grid_es_energy:           -1.229687
##########           Internal_energy_repulsive:           80.611191

@<TRIPOS>MOLECULE
ZINC000648570180
 55 58 1 0 0
SMALL
USER_CHARGES


@<TRIPOS>ATOM
      1 C1        -14.3945   -2.7397   55.8444 C.3     1  ZINC000648570180   -0.1500
      2 C2        -13.5030   -3.7773   55.1591 C.3     1  ZINC000648570180   -0.0600
      3 C3        -14.1017   -5.1752   55.3277 C.3     1  ZINC000648570180   -0.1400
      4 C4        -13.3565   -3.4412   53.6607 C.3     1  ZINC000648570180   -0.1200
      5 C5        -11.8899   -3.8133   53.3296 C.3     1  ZINC000648570180   -0.1300
      6 C6        -11.1294   -3.3737   54.6054 C.3     1  ZINC000648570180   -0.1200
      7 C7        -12.0870   -3.7344   55.7597 C.3     1  ZINC000648570180   -0.0700
      8 H8        -11.8260   -4.7098   56.1705 H       1  ZINC000648570180    0.0800
      9 C9        -12.0130   -2.6684   56.8546 C.3     1  ZINC000648570180   -0.1000
     10 H10       -12.5444   -1.7652   56.5543 H       1  ZINC000648570180    0.1000
     11 C11       -12.5601   -3.2139   58.2001 C.3     1  ZINC000648570180   -0.1400
     12 C12       -11.8162   -2.3592   59.2478 C.3     1  ZINC000648570180    0.1200
     13 N13       -10.6002   -1.8406   58.6043 N.am    1  ZINC000648570180   -0.6000
     14 C14        -9.6891   -1.0330   59.1822 C.2     1  ZINC000648570180    0.5800
     15 O15        -8.7183   -0.6637   58.5521 O.2     1  ZINC000648570180   -0.5200
     16 C16        -9.8717   -0.5947   60.5889 C.ar    1  ZINC000648570180    0.1600
     17 C17        -9.0480   -1.0925   61.5981 C.ar    1  ZINC000648570180   -0.2000
     18 C18        -9.2566   -0.6530   62.8983 C.ar    1  ZINC000648570180    0.1800
     19 N19       -10.2214    0.2168   63.1385 N.ar    1  ZINC000648570180   -0.5400
     20 C20       -10.9887    0.6724   62.1579 C.ar    1  ZINC000648570180    0.4800
     21 N21       -11.9889    1.5830   62.4522 N.3     1  ZINC000648570180   -0.4400
     22 C22       -11.9687    1.9494   63.8916 C.3     1  ZINC000648570180    0.0500
     23 C23       -12.7387    3.2935   63.9261 C.3     1  ZINC000648570180   -0.1200
     24 C24       -12.2815    3.9873   62.6224 C.3     1  ZINC000648570180   -0.1300
     25 C25       -11.7892    2.8475   61.7115 C.3     1  ZINC000648570180    0.0400
     26 N26       -10.8204    0.2833   60.9050 N.ar    1  ZINC000648570180   -0.5000
     27 C27       -10.5420   -2.3506   57.2219 C.3     1  ZINC000648570180    0.1100
     28 H28       -13.9068   -1.7654   55.8149 H       1  ZINC000648570180    0.0600
     29 H29       -15.3512   -2.6830   55.3250 H       1  ZINC000648570180    0.0500
     30 H30       -14.5608   -3.0316   56.8813 H       1  ZINC000648570180    0.0700
     31 H31       -15.0991   -5.1986   54.8886 H       1  ZINC000648570180    0.0500
     32 H32       -13.4666   -5.9053   54.8260 H       1  ZINC000648570180    0.0500
     33 H33       -14.1659   -5.4175   56.3884 H       1  ZINC000648570180    0.0500
     34 H34       -14.0458   -4.0407   53.0661 H       1  ZINC000648570180    0.0600
     35 H35       -13.5285   -2.3785   53.4896 H       1  ZINC000648570180    0.0700
     36 H36       -11.7902   -4.8871   53.1711 H       1  ZINC000648570180    0.0700
     37 H37       -11.5377   -3.2589   52.4597 H       1  ZINC000648570180    0.0700
     38 H38       -10.1933   -3.9241   54.7001 H       1  ZINC000648570180    0.0700
     39 H39       -10.9416   -2.3003   54.5867 H       1  ZINC000648570180    0.0700
     40 H40       -13.6367   -3.0588   58.2700 H       1  ZINC000648570180    0.0900
     41 H41       -12.3129   -4.2691   58.3174 H       1  ZINC000648570180    0.0800
     42 H42       -12.4486   -1.5309   59.5672 H       1  ZINC000648570180    0.0800
     43 H43       -11.5475   -2.9754   60.1058 H       1  ZINC000648570180    0.0700
     44 H44        -8.2665   -1.8034   61.3736 H       1  ZINC000648570180    0.1600
     45 H45        -8.6373   -1.0181   63.7043 H       1  ZINC000648570180    0.1800
     46 H46       -12.4834    1.1957   64.4876 H       1  ZINC000648570180    0.1000
     47 H47       -10.9447    2.0835   64.2400 H       1  ZINC000648570180    0.0500
     48 H48       -13.8150    3.1218   63.9148 H       1  ZINC000648570180    0.0800
     49 H49       -12.4498    3.8811   64.7975 H       1  ZINC000648570180    0.0800
     50 H50       -13.1186    4.5083   62.1575 H       1  ZINC000648570180    0.0800
     51 H51       -11.4692    4.6839   62.8293 H       1  ZINC000648570180    0.0700
     52 H52       -10.7314    2.9827   61.4863 H       1  ZINC000648570180    0.0900
     53 H53       -12.3691    2.8328   60.7886 H       1  ZINC000648570180    0.0900
     54 H54        -9.9365   -3.2559   57.1767 H       1  ZINC000648570180    0.0700
     55 H55       -10.1388   -1.5899   56.5535 H       1  ZINC000648570180    0.0800
@<TRIPOS>BOND
     1     1     2    1
     2     1    28    1
     3     1    29    1
     4     1    30    1
     5     2     7    1
     6     2     3    1
     7     2     4    1
     8     3    31    1
     9     3    32    1
    10     3    33    1
    11     4     5    1
    12     4    34    1
    13     4    35    1
    14     5     6    1
    15     5    36    1
    16     5    37    1
    17     6     7    1
    18     6    38    1
    19     6    39    1
    20     7     8    1
    21     7     9    1
    22     9    10    1
    23     9    27    1
    24     9    11    1
    25    11    12    1
    26    11    40    1
    27    11    41    1
    28    12    13    1
    29    12    42    1
    30    12    43    1
    31    13    14   am
    32    13    27    1
    33    14    15    2
    34    14    16    1
    35    16    26   ar
    36    16    17   ar
    37    17    18   ar
    38    17    44    1
    39    18    19   ar
    40    18    45    1
    41    19    20   ar
    42    20    21    1
    43    20    26   ar
    44    21    25    1
    45    21    22    1
    46    22    23    1
    47    22    46    1
    48    22    47    1
    49    23    24    1
    50    23    48    1
    51    23    49    1
    52    24    25    1
    53    24    50    1
    54    24    51    1
    55    25    52    1
    56    25    53    1
    57    27    54    1
    58    27    55    1
@<TRIPOS>SUBSTRUCTURE
     1 ZINC000648570180        1 TEMP              0 ****  ****    0 ROOT


##########                                Name:    ZINC001199210165
##########                DOCK_Rotatable_Bonds:                   5
##########                         Heavy_Atoms:                  23
##########                    Molecular_Weight:             375.225
##########                DOCK_Rotatable_Bonds:                   5
##########                       Formal_Charge:         -0.00999999
##########                     HBond_Acceptors:                   6
##########                        HBond_Donors:                   2
##########                         Heavy_Atoms:                  23
##########                          Grid_Score:          -30.425688
##########                     Grid_vdw_energy:          -30.109892
##########                      Grid_es_energy:           -0.315796
##########           Internal_energy_repulsive:            8.438036

@<TRIPOS>MOLECULE
ZINC001199210165
 38 40 1 0 0
SMALL
USER_CHARGES


@<TRIPOS>ATOM
      1 C1        -10.9612   -3.3236   52.6099 C.3     1  ZINC001199210165   -0.1700
      2 C2        -12.0565   -2.3308   53.0042 C.3     1  ZINC001199210165    0.0800
      3 C3        -12.4725   -1.5165   51.7776 C.3     1  ZINC001199210165   -0.1500
      4 O4        -13.1874   -3.0445   53.5081 O.3     1  ZINC001199210165   -0.3000
      5 C5        -13.0858   -3.5541   54.7615 C.ar    1  ZINC001199210165    0.3300
      6 C6        -12.5040   -2.7932   55.7666 C.ar    1  ZINC001199210165   -0.1300
      7 C7        -12.4066   -3.3314   57.0513 C.ar    1  ZINC001199210165   -0.0600
      8 C8        -11.7943   -2.5573   58.1558 C.2     1  ZINC001199210165    0.5700
      9 O9        -10.9331   -1.7341   57.9163 O.2     1  ZINC001199210165   -0.4900
     10 N10       -12.1923   -2.7661   59.4264 N.am    1  ZINC001199210165   -0.6600
     11 C11       -11.6144   -2.0355   60.4690 C.ar    1  ZINC001199210165    0.2000
     12 C12       -12.3763   -1.0900   61.1572 C.ar    1  ZINC001199210165   -0.1500
     13 C13       -11.8298   -0.3685   62.1768 C.ar    1  ZINC001199210165   -0.0200
     14 C14       -10.4939   -0.5750   62.5391 C.ar    1  ZINC001199210165   -0.1700
     15 C15        -9.6188    0.0079   63.5522 C.2     1  ZINC001199210165    0.0900
     16 Br16      -10.0939    1.3506   64.7962 Br      1  ZINC001199210165    0.0600
     17 N17        -8.4522   -0.5625   63.4465 N.2     1  ZINC001199210165   -0.2100
     18 N18        -8.4713   -1.5082   62.4161 N.pl3   1  ZINC001199210165   -0.4900
     19 C19        -9.7191   -1.5277   61.8488 C.ar    1  ZINC001199210165    0.1500
     20 C20       -10.2941   -2.2591   60.8141 C.ar    1  ZINC001199210165   -0.1700
     21 C21       -12.9034   -4.6218   57.2674 C.ar    1  ZINC001199210165   -0.1900
     22 C22       -13.4670   -5.3102   56.2123 C.ar    1  ZINC001199210165    0.1400
     23 N23       -13.5467   -4.7675   55.0129 N.ar    1  ZINC001199210165   -0.5200
     24 H24       -11.3399   -3.9952   51.8393 H       1  ZINC001199210165    0.0600
     25 H25       -10.0986   -2.7793   52.2256 H       1  ZINC001199210165    0.0700
     26 H26       -10.6649   -3.9038   53.4837 H       1  ZINC001199210165    0.0600
     27 H27       -11.6779   -1.6593   53.7748 H       1  ZINC001199210165    0.0900
     28 H28       -12.8511   -2.1881   51.0070 H       1  ZINC001199210165    0.0700
     29 H29       -13.2528   -0.8091   52.0586 H       1  ZINC001199210165    0.0600
     30 H30       -11.6098   -0.9722   51.3933 H       1  ZINC001199210165    0.0800
     31 H31       -12.1323   -1.8009   55.5579 H       1  ZINC001199210165    0.1600
     32 H32       -12.8798   -3.4232   59.6176 H       1  ZINC001199210165    0.4100
     33 H33       -13.4074   -0.9282   60.8796 H       1  ZINC001199210165    0.1500
     34 H34       -12.4266    0.3613   62.7037 H       1  ZINC001199210165    0.1400
     35 H35        -7.7218   -2.0617   62.1465 H       1  ZINC001199210165    0.4500
     36 H36        -9.7112   -2.9957   60.2811 H       1  ZINC001199210165    0.1400
     37 H37       -12.8463   -5.0730   58.2469 H       1  ZINC001199210165    0.1400
     38 H38       -13.8520   -6.3064   56.3721 H       1  ZINC001199210165    0.1700
@<TRIPOS>BOND
     1     1     2    1
     2     1    24    1
     3     1    25    1
     4     1    26    1
     5     2     3    1
     6     2     4    1
     7     2    27    1
     8     3    28    1
     9     3    29    1
    10     3    30    1
    11     4     5    1
    12     5    23   ar
    13     5     6   ar
    14     6     7   ar
    15     6    31    1
    16     7     8    1
    17     7    21   ar
    18     8     9    2
    19     8    10   am
    20    10    11    1
    21    10    32    1
    22    11    20   ar
    23    11    12   ar
    24    12    13   ar
    25    12    33    1
    26    13    14   ar
    27    13    34    1
    28    14    19   ar
    29    14    15    1
    30    15    16    1
    31    15    17    2
    32    17    18    1
    33    18    19    1
    34    18    35    1
    35    19    20   ar
    36    20    36    1
    37    21    22   ar
    38    21    37    1
    39    22    23   ar
    40    22    38    1
@<TRIPOS>SUBSTRUCTURE
     1 ZINC001199210165        1 TEMP              0 ****  ****    0 ROOT


##########                                Name:    ZINC000430767928
##########                DOCK_Rotatable_Bonds:                   4
##########                         Heavy_Atoms:                  25
##########                    Molecular_Weight:             358.505
##########                DOCK_Rotatable_Bonds:                   4
##########                       Formal_Charge:          -0.0100002
##########                     HBond_Acceptors:                   5
##########                        HBond_Donors:                   0
##########                         Heavy_Atoms:                  25
##########                          Grid_Score:          -30.417160
##########                     Grid_vdw_energy:          -29.445314
##########                      Grid_es_energy:           -0.971846
##########           Internal_energy_repulsive:           32.285999

@<TRIPOS>MOLECULE
ZINC000430767928
 51 55 1 0 0
SMALL
USER_CHARGES


@<TRIPOS>ATOM
      1 O1         -9.8032   -4.0341   59.1292 O.2     1  ZINC000430767928   -0.4600
      2 C2         -9.9287   -2.9712   58.5597 C.2     1  ZINC000430767928    0.5300
      3 C3         -9.4415   -1.6198   59.0239 C.3     1  ZINC000430767928    0.0400
      4 H4         -8.3577   -1.5186   58.9667 H       1  ZINC000430767928    0.1400
      5 C5        -10.0033   -1.2623   60.4154 C.3     1  ZINC000430767928   -0.1100
      6 C6        -10.1221    0.2813   60.3387 C.3     1  ZINC000430767928   -0.1000
      7 H7         -9.2487    0.7518   60.7902 H       1  ZINC000430767928    0.1000
      8 C8        -11.3994    0.7520   61.0373 C.3     1  ZINC000430767928   -0.0800
      9 C9        -11.4212    0.2216   62.4723 C.3     1  ZINC000430767928   -0.1100
     10 C10       -12.6985    0.6923   63.1707 C.3     1  ZINC000430767928   -0.1200
     11 C11       -12.7342    2.2218   63.1918 C.3     1  ZINC000430767928   -0.1200
     12 C12       -12.7125    2.7522   61.7568 C.3     1  ZINC000430767928   -0.1200
     13 C13       -11.4351    2.2815   61.0584 C.3     1  ZINC000430767928   -0.1200
     14 C14       -10.1840    0.6000   58.8292 C.3     1  ZINC000430767928    0.1600
     15 N15       -10.1666   -0.6878   58.1153 N.am    1  ZINC000430767928   -0.6400
     16 C16       -10.5388   -1.4277   57.0660 C.2     1  ZINC000430767928    0.7400
     17 O17       -10.8605   -0.9705   55.9868 O.2     1  ZINC000430767928   -0.5100
     18 N18       -10.5296   -2.7440   57.3706 N.am    1  ZINC000430767928   -0.5800
     19 C19       -11.1047   -3.7922   56.5240 C.3     1  ZINC000430767928    0.2600
     20 H20       -10.4838   -4.6863   56.5804 H       1  ZINC000430767928    0.1200
     21 C21       -12.4967   -4.1163   57.0016 C.2     1  ZINC000430767928   -0.2100
     22 C22       -13.0897   -5.3061   56.8920 C.2     1  ZINC000430767928   -0.1200
     23 C23       -14.3743   -5.3670   57.4043 C.2     1  ZINC000430767928   -0.1400
     24 C24       -14.8244   -4.2265   57.9298 C.2     1  ZINC000430767928   -0.2300
     25 S25       -13.5852   -2.9856   57.7956 S.3     1  ZINC000430767928    0.1700
     26 C26       -11.1635   -3.3027   55.0756 C.3     1  ZINC000430767928   -0.1700
     27 C27       -12.0004   -4.1182   54.0877 C.3     1  ZINC000430767928   -0.1700
     28 C28       -12.4990   -2.7541   54.5690 C.3     1  ZINC000430767928   -0.1600
     29 H29       -10.9810   -1.7193   60.5677 H       1  ZINC000430767928    0.0800
     30 H30        -9.3089   -1.5590   61.2016 H       1  ZINC000430767928    0.1000
     31 H31       -12.2685    0.3757   60.4976 H       1  ZINC000430767928    0.0700
     32 H32       -11.3957   -0.8681   62.4572 H       1  ZINC000430767928    0.0600
     33 H33       -10.5521    0.5979   63.0119 H       1  ZINC000430767928    0.0700
     34 H34       -13.5675    0.3160   62.6310 H       1  ZINC000430767928    0.0600
     35 H35       -12.7139    0.3144   64.1929 H       1  ZINC000430767928    0.0600
     36 H36       -13.6441    2.5571   63.6893 H       1  ZINC000430767928    0.0600
     37 H37       -11.8652    2.5981   63.7314 H       1  ZINC000430767928    0.0600
     38 H38       -13.5815    2.3759   61.2171 H       1  ZINC000430767928    0.0600
     39 H39       -12.7379    3.8418   61.7718 H       1  ZINC000430767928    0.0600
     40 H40       -10.5661    2.6578   61.5980 H       1  ZINC000430767928    0.0700
     41 H41       -11.4198    2.6594   60.0361 H       1  ZINC000430767928    0.0600
     42 H42       -11.0984    1.1475   58.6005 H       1  ZINC000430767928    0.0900
     43 H43        -9.3137    1.1869   58.5357 H       1  ZINC000430767928    0.0800
     44 H44       -12.6045   -6.1574   56.4379 H       1  ZINC000430767928    0.1400
     45 H45       -14.9671   -6.2693   57.3800 H       1  ZINC000430767928    0.1400
     46 H46       -15.7994   -4.0874   58.3731 H       1  ZINC000430767928    0.1600
     47 H47       -10.2528   -2.8367   54.6993 H       1  ZINC000430767928    0.1200
     48 H48       -11.6402   -4.1890   53.0615 H       1  ZINC000430767928    0.1000
     49 H49       -12.5090   -5.0033   54.4698 H       1  ZINC000430767928    0.1000
     50 H50       -13.3356   -2.7418   55.2677 H       1  ZINC000430767928    0.1000
     51 H51       -12.4668   -1.9274   53.8592 H       1  ZINC000430767928    0.1000
@<TRIPOS>BOND
     1     1     2    2
     2     2    18   am
     3     2     3    1
     4     3     4    1
     5     3    15    1
     6     3     5    1
     7     5     6    1
     8     5    29    1
     9     5    30    1
    10     6     7    1
    11     6     8    1
    12     6    14    1
    13     8    13    1
    14     8     9    1
    15     8    31    1
    16     9    10    1
    17     9    32    1
    18     9    33    1
    19    10    11    1
    20    10    34    1
    21    10    35    1
    22    11    12    1
    23    11    36    1
    24    11    37    1
    25    12    13    1
    26    12    38    1
    27    12    39    1
    28    13    40    1
    29    13    41    1
    30    14    15    1
    31    14    42    1
    32    14    43    1
    33    15    16   am
    34    16    17    2
    35    16    18   am
    36    18    19    1
    37    19    20    1
    38    19    21    1
    39    19    26    1
    40    21    25    1
    41    21    22    2
    42    22    23    1
    43    22    44    1
    44    23    24    2
    45    23    45    1
    46    24    25    1
    47    24    46    1
    48    26    28    1
    49    26    27    1
    50    26    47    1
    51    27    28    1
    52    27    48    1
    53    27    49    1
    54    28    50    1
    55    28    51    1
@<TRIPOS>SUBSTRUCTURE
     1 ZINC000430767928        1 TEMP              0 ****  ****    0 ROOT


##########                                Name:    ZINC000080099940
##########                DOCK_Rotatable_Bonds:                   4
##########                         Heavy_Atoms:                  26
##########                    Molecular_Weight:             343.388
##########                DOCK_Rotatable_Bonds:                   4
##########                       Formal_Charge:        -3.42727e-07
##########                     HBond_Acceptors:                   6
##########                        HBond_Donors:                   1
##########                         Heavy_Atoms:                  26
##########                          Grid_Score:          -30.399517
##########                     Grid_vdw_energy:          -30.831619
##########                      Grid_es_energy:            0.432102
##########           Internal_energy_repulsive:            2.442320

@<TRIPOS>MOLECULE
ZINC000080099940
 43 46 1 0 0
SMALL
USER_CHARGES


@<TRIPOS>ATOM
      1 C1        -14.1442   -1.3306   56.4275 C.3     1  ZINC000080099940   -0.1100
      2 C2        -12.7600   -0.8344   56.0973 C.2     1  ZINC000080099940   -0.0700
      3 C3        -12.3277   -0.8238   54.8078 C.2     1  ZINC000080099940   -0.0900
      4 C4        -11.0294   -0.3560   54.5180 C.2     1  ZINC000080099940    0.2300
      5 N5        -10.3619   -0.2362   53.3800 N.2     1  ZINC000080099940   -0.4800
      6 C6         -9.1437    0.2666   53.6357 C.2     1  ZINC000080099940    0.1000
      7 C7         -8.0923    0.5517   52.6283 C.ar    1  ZINC000080099940   -0.0200
      8 C8         -7.6799    1.8638   52.4020 C.ar    1  ZINC000080099940   -0.0800
      9 C9         -6.7025    2.1264   51.4658 C.ar    1  ZINC000080099940   -0.1200
     10 C10        -6.1287    1.0839   50.7476 C.ar    1  ZINC000080099940    0.1500
     11 N11        -5.1383    1.3524   49.7987 N.am    1  ZINC000080099940   -0.6500
     12 C12        -3.9016    1.7095   50.1980 C.2     1  ZINC000080099940    0.5700
     13 O13        -3.6476    1.7980   51.3828 O.2     1  ZINC000080099940   -0.5000
     14 C14        -2.8500    1.9947   49.1904 C.ar    1  ZINC000080099940    0.1300
     15 C15        -1.5860    2.4311   49.5885 C.ar    1  ZINC000080099940   -0.1700
     16 C16        -0.6383    2.6832   48.6064 C.ar    1  ZINC000080099940    0.1600
     17 N17        -0.9624    2.5030   47.3377 N.ar    1  ZINC000080099940   -0.5000
     18 C18        -2.1673    2.0891   46.9955 C.ar    1  ZINC000080099940    0.3200
     19 C19        -2.4881    1.8986   45.5354 C.3     1  ZINC000080099940   -0.0900
     20 N20        -3.0953    1.8330   47.8920 N.ar    1  ZINC000080099940   -0.5000
     21 C21        -6.5381   -0.2253   50.9719 C.ar    1  ZINC000080099940   -0.1400
     22 C22        -7.5115   -0.4928   51.9110 C.ar    1  ZINC000080099940   -0.0700
     23 C23        -9.0386    0.4711   54.9785 C.2     1  ZINC000080099940   -0.0900
     24 N24       -10.2233    0.0806   55.5380 N.pl3   1  ZINC000080099940   -0.3600
     25 C25       -10.6705    0.0643   56.8278 C.2     1  ZINC000080099940    0.0600
     26 C26       -11.9127   -0.3753   57.1193 C.2     1  ZINC000080099940   -0.1400
     27 H27       -14.3092   -1.2584   57.5025 H       1  ZINC000080099940    0.0700
     28 H28       -14.8825   -0.7225   55.9049 H       1  ZINC000080099940    0.0800
     29 H29       -14.2420   -2.3700   56.1139 H       1  ZINC000080099940    0.0800
     30 H30       -12.9722   -1.1706   54.0136 H       1  ZINC000080099940    0.1500
     31 H31        -8.1260    2.6742   52.9594 H       1  ZINC000080099940    0.1300
     32 H32        -6.3826    3.1429   51.2902 H       1  ZINC000080099940    0.1400
     33 H33        -5.3410    1.2817   48.8528 H       1  ZINC000080099940    0.4200
     34 H34        -1.3513    2.5695   50.6336 H       1  ZINC000080099940    0.1600
     35 H35         0.3511    3.0227   48.8753 H       1  ZINC000080099940    0.1800
     36 H36        -2.2467    0.8774   45.2405 H       1  ZINC000080099940    0.0900
     37 H37        -3.5494    2.0835   45.3695 H       1  ZINC000080099940    0.0900
     38 H38        -1.9002    2.5973   44.9401 H       1  ZINC000080099940    0.0900
     39 H39        -6.0909   -1.0338   50.4128 H       1  ZINC000080099940    0.1300
     40 H40        -7.8290   -1.5103   52.0853 H       1  ZINC000080099940    0.1400
     41 H41        -8.1810    0.8667   55.5023 H       1  ZINC000080099940    0.1900
     42 H42       -10.0257    0.4108   57.6218 H       1  ZINC000080099940    0.1700
     43 H43       -12.2537   -0.3823   58.1441 H       1  ZINC000080099940    0.1500
@<TRIPOS>BOND
     1     1     2    1
     2     1    27    1
     3     1    28    1
     4     1    29    1
     5     2    26    1
     6     2     3    2
     7     3     4    1
     8     3    30    1
     9     4    24    1
    10     4     5    2
    11     5     6    1
    12     6     7    1
    13     6    23    2
    14     7    22   ar
    15     7     8   ar
    16     8     9   ar
    17     8    31    1
    18     9    10   ar
    19     9    32    1
    20    10    11    1
    21    10    21   ar
    22    11    12   am
    23    11    33    1
    24    12    13    2
    25    12    14    1
    26    14    20   ar
    27    14    15   ar
    28    15    16   ar
    29    15    34    1
    30    16    17   ar
    31    16    35    1
    32    17    18   ar
    33    18    19    1
    34    18    20   ar
    35    19    36    1
    36    19    37    1
    37    19    38    1
    38    21    22   ar
    39    21    39    1
    40    22    40    1
    41    23    24    1
    42    23    41    1
    43    24    25    1
    44    25    26    2
    45    25    42    1
    46    26    43    1
@<TRIPOS>SUBSTRUCTURE
     1 ZINC000080099940        1 TEMP              0 ****  ****    0 ROOT


##########                                Name:    ZINC001023407238
##########                DOCK_Rotatable_Bonds:                   7
##########                         Heavy_Atoms:                  25
##########                    Molecular_Weight:             349.387
##########                DOCK_Rotatable_Bonds:                   7
##########                       Formal_Charge:          -0.0300008
##########                     HBond_Acceptors:                   8
##########                        HBond_Donors:                   2
##########                         Heavy_Atoms:                  25
##########                          Grid_Score:          -30.389397
##########                     Grid_vdw_energy:          -28.107174
##########                      Grid_es_energy:           -2.282223
##########           Internal_energy_repulsive:           24.738516

@<TRIPOS>MOLECULE
ZINC001023407238
 48 50 1 0 0
SMALL
USER_CHARGES


@<TRIPOS>ATOM
      1 C1        -10.5734   -3.7135   54.1387 C.3     1  ZINC001023407238   -0.0900
      2 C2        -11.9262   -3.9994   54.7382 C.2     1  ZINC001023407238   -0.1100
      3 C3        -12.1904   -4.3021   56.0570 C.2     1  ZINC001023407238   -0.0500
      4 C4        -11.2037   -4.4054   57.1374 C.2     1  ZINC001023407238    0.6100
      5 O5        -10.7262   -5.4874   57.4239 O.2     1  ZINC001023407238   -0.5100
      6 N6        -10.8260   -3.3019   57.8128 N.am    1  ZINC001023407238   -0.6100
      7 C7         -9.8511   -3.2621   58.9126 C.3     1  ZINC001023407238    0.0800
      8 C8         -9.7192   -1.7895   59.3549 C.3     1  ZINC001023407238    0.0900
      9 H9        -10.3625   -1.5848   60.2107 H       1  ZINC001023407238    0.0800
     10 O10        -8.3595   -1.4730   59.6597 O.3     1  ZINC001023407238   -0.5500
     11 C11       -10.2022   -1.0067   58.1054 C.3     1  ZINC001023407238    0.1400
     12 H12        -9.3995   -0.9021   57.3755 H       1  ZINC001023407238    0.1200
     13 N13       -10.7401    0.3030   58.4817 N.am    1  ZINC001023407238   -0.7200
     14 C14        -9.9160    1.3638   58.5908 C.2     1  ZINC001023407238    0.5200
     15 O15        -8.7289    1.2339   58.3789 O.2     1  ZINC001023407238   -0.5300
     16 C16       -10.4695    2.7115   58.9762 C.3     1  ZINC001023407238   -0.1300
     17 C17       -11.0866    2.6286   60.3738 C.3     1  ZINC001023407238   -0.1100
     18 H18       -11.2044    3.6233   60.8039 H       1  ZINC001023407238    0.1100
     19 C19       -12.4394    1.8818   60.3350 C.3     1  ZINC001023407238    0.0600
     20 O20       -12.4875    1.1505   61.5957 O.3     1  ZINC001023407238   -0.3500
     21 C21       -11.2461    0.8208   61.9798 C.2     1  ZINC001023407238    0.4800
     22 O22       -10.9709   -0.0639   62.7555 O.2     1  ZINC001023407238   -0.4600
     23 C23       -10.2380    1.7266   61.2974 C.3     1  ZINC001023407238   -0.1800
     24 C24       -11.3174   -1.9338   57.5670 C.3     1  ZINC001023407238    0.1000
     25 N25       -13.5491   -4.4893   56.1753 N.pl3   1  ZINC001023407238   -0.4200
     26 C26       -14.2604   -4.8284   57.4103 C.3     1  ZINC001023407238    0.0700
     27 C27       -14.1189   -4.3077   54.9591 C.2     1  ZINC001023407238    0.0100
     28 C28       -13.1506   -4.0016   54.0629 C.2     1  ZINC001023407238   -0.2000
     29 H29       -10.3653   -2.6455   54.2042 H       1  ZINC001023407238    0.0600
     30 H30        -9.8095   -4.2666   54.6853 H       1  ZINC001023407238    0.0600
     31 H31       -10.5668   -4.0215   53.0932 H       1  ZINC001023407238    0.0700
     32 H32       -10.2068   -3.8688   59.7453 H       1  ZINC001023407238    0.0800
     33 H33        -8.8864   -3.6330   58.5664 H       1  ZINC001023407238    0.0800
     34 H34        -7.9642   -2.0437   60.3328 H       1  ZINC001023407238    0.3900
     35 H35       -11.6893    0.4067   58.6523 H       1  ZINC001023407238    0.4100
     36 H36        -9.6657    3.4477   58.9771 H       1  ZINC001023407238    0.1000
     37 H37       -11.2339    3.0091   58.2585 H       1  ZINC001023407238    0.1100
     38 H38       -13.2644    2.5916   60.2749 H       1  ZINC001023407238    0.1200
     39 H39       -12.4686    1.1907   59.4926 H       1  ZINC001023407238    0.0800
     40 H40        -9.5362    1.1367   60.7077 H       1  ZINC001023407238    0.1100
     41 H41        -9.7049    2.3252   62.0360 H       1  ZINC001023407238    0.1200
     42 H42       -11.4673   -1.7669   56.5002 H       1  ZINC001023407238    0.0900
     43 H43       -12.2462   -1.7663   58.1122 H       1  ZINC001023407238    0.0800
     44 H44       -14.6312   -3.9164   57.8781 H       1  ZINC001023407238    0.0800
     45 H45       -15.0993   -5.4845   57.1779 H       1  ZINC001023407238    0.0900
     46 H46       -13.5802   -5.3366   58.0936 H       1  ZINC001023407238    0.0800
     47 H47       -15.1734   -4.3899   54.7410 H       1  ZINC001023407238    0.1700
     48 H48       -13.2973   -3.8017   53.0117 H       1  ZINC001023407238    0.1400
@<TRIPOS>BOND
     1     1     2    1
     2     1    29    1
     3     1    30    1
     4     1    31    1
     5     2    28    1
     6     2     3    2
     7     3     4    1
     8     3    25    1
     9     4     5    2
    10     4     6   am
    11     6    24    1
    12     6     7    1
    13     7     8    1
    14     7    32    1
    15     7    33    1
    16     8     9    1
    17     8    10    1
    18     8    11    1
    19    10    34    1
    20    11    12    1
    21    11    13    1
    22    11    24    1
    23    13    14   am
    24    13    35    1
    25    14    15    2
    26    14    16    1
    27    16    17    1
    28    16    36    1
    29    16    37    1
    30    17    18    1
    31    17    23    1
    32    17    19    1
    33    19    20    1
    34    19    38    1
    35    19    39    1
    36    20    21    1
    37    21    22    2
    38    21    23    1
    39    23    40    1
    40    23    41    1
    41    24    42    1
    42    24    43    1
    43    25    26    1
    44    25    27    1
    45    26    44    1
    46    26    45    1
    47    26    46    1
    48    27    28    2
    49    27    47    1
    50    28    48    1
@<TRIPOS>SUBSTRUCTURE
     1 ZINC001023407238        1 TEMP              0 ****  ****    0 ROOT


##########                                Name:    ZINC000650955167
##########                DOCK_Rotatable_Bonds:                   9
##########                         Heavy_Atoms:                  26
##########                    Molecular_Weight:             361.484
##########                DOCK_Rotatable_Bonds:                   9
##########                       Formal_Charge:        -7.07805e-07
##########                     HBond_Acceptors:                   6
##########                        HBond_Donors:                   2
##########                         Heavy_Atoms:                  26
##########                          Grid_Score:          -30.336197
##########                     Grid_vdw_energy:          -29.953892
##########                      Grid_es_energy:           -0.382305
##########           Internal_energy_repulsive:           30.373631

@<TRIPOS>MOLECULE
ZINC000650955167
 57 59 1 0 0
SMALL
USER_CHARGES


@<TRIPOS>ATOM
      1 C1         -9.5677    0.4239   58.8272 C.3     1  ZINC000650955167    0.0200
      2 O2        -10.3834   -0.3221   59.7329 O.3     1  ZINC000650955167   -0.3200
      3 C3         -9.9369   -0.4403   61.0111 C.ar    1  ZINC000650955167    0.1300
      4 C4         -8.9487   -1.3636   61.3191 C.ar    1  ZINC000650955167   -0.2000
      5 C5         -8.4961   -1.4815   62.6193 C.ar    1  ZINC000650955167   -0.0800
      6 C6         -9.0277   -0.6805   63.6127 C.ar    1  ZINC000650955167   -0.1500
      7 C7        -10.0134    0.2403   63.3083 C.ar    1  ZINC000650955167   -0.0800
      8 C8        -10.4649    0.3664   62.0089 C.ar    1  ZINC000650955167   -0.1100
      9 C9        -11.5386    1.3705   61.6777 C.3     1  ZINC000650955167   -0.0800
     10 C10       -12.9138    0.7229   61.8521 C.3     1  ZINC000650955167    0.1800
     11 H11       -12.9261    0.1384   62.7720 H       1  ZINC000650955167    0.0900
     12 N12       -13.1882   -0.1551   60.7118 N.am    1  ZINC000650955167   -0.7300
     13 C13       -14.0409   -1.1899   60.8481 C.2     1  ZINC000650955167    0.7400
     14 O14       -14.5835   -1.3939   61.9169 O.2     1  ZINC000650955167   -0.5800
     15 N15       -14.2921   -1.9985   59.7995 N.am    1  ZINC000650955167   -0.6700
     16 C16       -13.8476   -2.0875   58.4004 C.3     1  ZINC000650955167    0.1100
     17 C17       -15.1863   -2.7643   58.0750 C.3     1  ZINC000650955167    0.0300
     18 N18       -15.0811   -3.8833   57.1290 N.3     1  ZINC000650955167   -0.5100
     19 C19       -14.2000   -4.9451   57.6602 C.3     1  ZINC000650955167    0.0400
     20 C20       -13.4997   -5.5390   56.4126 C.3     1  ZINC000650955167   -0.1600
     21 C21       -13.2822   -4.2729   55.5429 C.3     1  ZINC000650955167    0.0800
     22 H22       -12.3833   -3.7410   55.8545 H       1  ZINC000650955167    0.0600
     23 O23       -13.2087   -4.6176   54.1580 O.3     1  ZINC000650955167   -0.5600
     24 C24       -14.5426   -3.4310   55.8331 C.3     1  ZINC000650955167    0.0500
     25 C25       -15.1263   -3.1844   59.5528 C.3     1  ZINC000650955167    0.1400
     26 C26       -13.9851    1.8128   61.9260 C.3     1  ZINC000650955167   -0.1100
     27 C27       -13.9863    2.4327   63.3249 C.3     1  ZINC000650955167   -0.1400
     28 C28       -13.6830    2.8959   60.8884 C.3     1  ZINC000650955167   -0.1500
     29 H29       -10.0381    0.4406   57.8440 H       1  ZINC000650955167    0.1000
     30 H30        -9.4568    1.4443   59.1942 H       1  ZINC000650955167    0.0600
     31 H31        -8.5861   -0.0440   58.7525 H       1  ZINC000650955167    0.0600
     32 H32        -8.5335   -1.9900   60.5435 H       1  ZINC000650955167    0.1300
     33 H33        -7.7267   -2.2002   62.8597 H       1  ZINC000650955167    0.1200
     34 H34        -8.6729   -0.7744   64.6285 H       1  ZINC000650955167    0.1200
     35 H35       -10.4274    0.8647   64.0862 H       1  ZINC000650955167    0.1300
     36 H36       -11.4532    2.2275   62.3458 H       1  ZINC000650955167    0.0900
     37 H37       -11.4210    1.7012   60.6457 H       1  ZINC000650955167    0.0800
     38 H38       -12.7562    0.0085   59.8589 H       1  ZINC000650955167    0.4000
     39 H39       -13.7246   -1.1161   57.9215 H       1  ZINC000650955167    0.0700
     40 H40       -12.9858   -2.7397   58.2594 H       1  ZINC000650955167    0.0900
     41 H41       -15.9911   -2.0701   57.8333 H       1  ZINC000650955167    0.0900
     42 H42       -13.4635   -4.5209   58.3427 H       1  ZINC000650955167    0.0500
     43 H43       -14.7897   -5.7105   58.1647 H       1  ZINC000650955167    0.0900
     44 H44       -12.5475   -5.9971   56.6803 H       1  ZINC000650955167    0.0800
     45 H45       -14.1467   -6.2547   55.9054 H       1  ZINC000650955167    0.0900
     46 H46       -12.4526   -5.1763   53.9314 H       1  ZINC000650955167    0.3800
     47 H47       -15.2827   -3.5886   55.0486 H       1  ZINC000650955167    0.0900
     48 H48       -14.2782   -2.3750   55.8898 H       1  ZINC000650955167    0.0700
     49 H49       -14.6048   -4.1276   59.7152 H       1  ZINC000650955167    0.0900
     50 H50       -16.0930   -3.1447   60.0550 H       1  ZINC000650955167    0.0800
     51 H51       -14.9625    1.3760   61.7212 H       1  ZINC000650955167    0.0700
     52 H52       -13.0088    2.8695   63.5296 H       1  ZINC000650955167    0.0600
     53 H53       -14.7494    3.2092   63.3774 H       1  ZINC000650955167    0.0400
     54 H54       -14.2014    1.6610   64.0639 H       1  ZINC000650955167    0.0500
     55 H55       -13.6820    2.4543   59.8919 H       1  ZINC000650955167    0.0600
     56 H56       -14.4461    3.6724   60.9411 H       1  ZINC000650955167    0.0600
     57 H57       -12.7055    3.3327   61.0932 H       1  ZINC000650955167    0.0600
@<TRIPOS>BOND
     1     1     2    1
     2     1    29    1
     3     1    30    1
     4     1    31    1
     5     2     3    1
     6     3     8   ar
     7     3     4   ar
     8     4     5   ar
     9     4    32    1
    10     5     6   ar
    11     5    33    1
    12     6     7   ar
    13     6    34    1
    14     7     8   ar
    15     7    35    1
    16     8     9    1
    17     9    10    1
    18     9    36    1
    19     9    37    1
    20    10    11    1
    21    10    12    1
    22    10    26    1
    23    12    13   am
    24    12    38    1
    25    13    14    2
    26    13    15   am
    27    15    25    1
    28    15    16    1
    29    16    17    1
    30    16    39    1
    31    16    40    1
    32    17    18    1
    33    17    25    1
    34    17    41    1
    35    18    24    1
    36    18    19    1
    37    19    20    1
    38    19    42    1
    39    19    43    1
    40    20    21    1
    41    20    44    1
    42    20    45    1
    43    21    22    1
    44    21    23    1
    45    21    24    1
    46    23    46    1
    47    24    47    1
    48    24    48    1
    49    25    49    1
    50    25    50    1
    51    26    27    1
    52    26    28    1
    53    26    51    1
    54    27    52    1
    55    27    53    1
    56    27    54    1
    57    28    55    1
    58    28    56    1
    59    28    57    1
@<TRIPOS>SUBSTRUCTURE
     1 ZINC000650955167        1 TEMP              0 ****  ****    0 ROOT


##########                                Name:    ZINC000493443319
##########                DOCK_Rotatable_Bonds:                   6
##########                         Heavy_Atoms:                  25
##########                    Molecular_Weight:             348.399
##########                DOCK_Rotatable_Bonds:                   6
##########                       Formal_Charge:        -3.27826e-07
##########                     HBond_Acceptors:                   7
##########                        HBond_Donors:                   0
##########                         Heavy_Atoms:                  25
##########                          Grid_Score:          -30.335062
##########                     Grid_vdw_energy:          -29.613184
##########                      Grid_es_energy:           -0.721878
##########           Internal_energy_repulsive:           58.474701

@<TRIPOS>MOLECULE
ZINC000493443319
 49 51 1 0 0
SMALL
USER_CHARGES


@<TRIPOS>ATOM
      1 C1         -5.9571    3.1035   57.2948 C.3     1  <0>        -0.1500
      2 C2         -7.1496    3.3556   56.3701 C.3     1  <0>         0.0500
      3 O3         -7.6171    2.1114   55.8457 O.3     1  <0>        -0.3200
      4 C4         -8.4784    1.3994   56.6207 C.ar    1  <0>         0.1000
      5 C5         -9.0511    0.2348   56.1311 C.ar    1  <0>        -0.1700
      6 C6         -9.9259   -0.4885   56.9182 C.ar    1  <0>        -0.1100
      7 C7        -10.2313   -0.0504   58.1983 C.ar    1  <0>         0.0800
      8 O8        -11.0928   -0.7623   58.9731 O.3     1  <0>        -0.3000
      9 C9        -10.5992   -1.9745   59.5466 C.3     1  <0>         0.1000
     10 C10        -9.1017   -1.8335   59.8270 C.3     1  <0>        -0.1800
     11 C11       -11.3389   -2.2576   60.8557 C.3     1  <0>        -0.1500
     12 C12       -10.8252   -3.1133   58.5856 C.2     1  <0>         0.5100
     13 O13        -9.9075   -3.8495   58.2913 O.2     1  <0>        -0.5200
     14 N14       -12.0472   -3.3134   58.0534 N.am    1  <0>        -0.6000
     15 C15       -13.1601   -2.4238   58.4079 C.3     1  <0>         0.0700
     16 C16       -13.7464   -1.8170   57.1230 C.3     1  <0>         0.1300
     17 N17       -13.9057   -2.9104   56.1541 N.am    1  <0>        -0.6300
     18 C18       -14.9997   -3.2646   55.4778 C.2     1  <0>         0.6500
     19 O19       -16.0141   -2.5961   55.4565 O.2     1  <0>        -0.5200
     20 O20       -14.8736   -4.4276   54.8246 O.3     1  <0>        -0.3200
     21 C21       -13.5122   -4.9273   54.9799 C.3     1  <0>         0.0500
     22 C22       -12.8077   -3.8370   55.8034 C.3     1  <0>         0.0800
     23 H23       -12.0299   -3.3381   55.2253 H       1  <0>         0.1100
     24 C24       -12.2693   -4.4202   57.1104 C.3     1  <0>         0.1000
     25 C25        -9.6574    1.1133   58.6884 C.ar    1  <0>        -0.1800
     26 C26        -8.7796    1.8345   57.9026 C.ar    1  <0>        -0.1100
     27 H27        -5.6004    4.0526   57.6949 H       1  <0>         0.0800
     28 H28        -6.2644    2.4557   58.1158 H       1  <0>         0.0700
     29 H29        -5.1567    2.6225   56.7326 H       1  <0>         0.0700
     30 H30        -7.9500    3.8367   56.9324 H       1  <0>         0.0600
     31 H31        -6.8422    4.0034   55.5492 H       1  <0>         0.0600
     32 H32        -8.8134   -0.1062   55.1343 H       1  <0>         0.1400
     33 H33       -10.3725   -1.3948   56.5368 H       1  <0>         0.1400
     34 H34        -8.9479   -1.1003   60.6188 H       1  <0>         0.0800
     35 H35        -8.6985   -2.7965   60.1403 H       1  <0>         0.0900
     36 H36        -8.5921   -1.5032   58.9219 H       1  <0>         0.0800
     37 H37       -12.4130   -2.2697   60.6708 H       1  <0>         0.0800
     38 H38       -11.0266   -3.2256   61.2475 H       1  <0>         0.0900
     39 H39       -11.1039   -1.4790   61.5814 H       1  <0>         0.0900
     40 H40       -13.9310   -2.9934   58.9268 H       1  <0>         0.0800
     41 H41       -12.7968   -1.6257   59.0553 H       1  <0>         0.1300
     42 H42       -14.7157   -1.3657   57.3351 H       1  <0>         0.1100
     43 H43       -13.0657   -1.0648   56.7243 H       1  <0>         0.0800
     44 H44       -13.5119   -5.8741   55.5198 H       1  <0>         0.1100
     45 H45       -13.0335   -5.0407   54.0072 H       1  <0>         0.1100
     46 H46       -11.3288   -4.9381   56.9225 H       1  <0>         0.1100
     47 H47       -12.9960   -5.1159   57.5300 H       1  <0>         0.0800
     48 H48        -9.8948    1.4542   59.6853 H       1  <0>         0.1600
     49 H49        -8.3328    2.7407   58.2843 H       1  <0>         0.1300
@<TRIPOS>BOND
     1     1     2    1
     2     1    27    1
     3     1    28    1
     4     1    29    1
     5     2     3    1
     6     2    30    1
     7     2    31    1
     8     3     4    1
     9     4    26   ar
    10     4     5   ar
    11     5     6   ar
    12     5    32    1
    13     6     7   ar
    14     6    33    1
    15     7     8    1
    16     7    25   ar
    17     8     9    1
    18     9    10    1
    19     9    11    1
    20     9    12    1
    21    10    34    1
    22    10    35    1
    23    10    36    1
    24    11    37    1
    25    11    38    1
    26    11    39    1
    27    12    13    2
    28    12    14   am
    29    14    24    1
    30    14    15    1
    31    15    16    1
    32    15    40    1
    33    15    41    1
    34    16    17    1
    35    16    42    1
    36    16    43    1
    37    17    22    1
    38    17    18   am
    39    18    19    2
    40    18    20    1
    41    20    21    1
    42    21    22    1
    43    21    44    1
    44    21    45    1
    45    22    23    1
    46    22    24    1
    47    24    46    1
    48    24    47    1
    49    25    26   ar
    50    25    48    1
    51    26    49    1
@<TRIPOS>SUBSTRUCTURE
     1 <0>         1 TEMP              0 ****  ****    0 ROOT


##########                                Name:    ZINC000225856071
##########                DOCK_Rotatable_Bonds:                   6
##########                         Heavy_Atoms:                  29
##########                    Molecular_Weight:             409.549
##########                DOCK_Rotatable_Bonds:                   6
##########                       Formal_Charge:         -0.00999989
##########                     HBond_Acceptors:                   5
##########                        HBond_Donors:                   1
##########                         Heavy_Atoms:                  29
##########                          Grid_Score:          -30.309685
##########                     Grid_vdw_energy:          -29.638979
##########                      Grid_es_energy:           -0.670706
##########           Internal_energy_repulsive:           36.282204

@<TRIPOS>MOLECULE
ZINC000225856071
 56 58 1 0 0
SMALL
USER_CHARGES


@<TRIPOS>ATOM
      1 C1        -10.7356    0.6712   63.4747 C.3     1  ZINC000225856071    0.0200
      2 O2        -11.8543    0.3660   62.6397 O.3     1  ZINC000225856071   -0.3100
      3 C3        -11.6519   -0.5340   61.6417 C.ar    1  ZINC000225856071    0.1900
      4 C4        -10.4114   -0.6231   61.0276 C.ar    1  ZINC000225856071   -0.2300
      5 C5        -10.2081   -1.5394   60.0136 C.ar    1  ZINC000225856071    0.0700
      6 C6         -8.8605   -1.6367   59.3460 C.3     1  ZINC000225856071   -0.1800
      7 C7        -11.2395   -2.3671   59.6112 C.ar    1  ZINC000225856071   -0.7100
      8 S8        -10.9769   -3.5349   58.3182 S.o2    1  ZINC000225856071    2.7000
      9 O9         -9.7655   -4.2103   58.6274 O.2     1  ZINC000225856071   -0.9600
     10 O10       -12.2143   -4.2067   58.1268 O.2     1  ZINC000225856071   -0.9500
     11 N11       -10.6922   -2.6751   56.9317 N.am    1  ZINC000225856071   -1.1100
     12 C12       -11.7081   -1.7512   56.4212 C.3     1  ZINC000225856071    0.2400
     13 H13       -12.1131   -1.1647   57.2460 H       1  ZINC000225856071    0.1100
     14 C14       -12.8180   -2.5349   55.7696 C.ar    1  ZINC000225856071   -0.1000
     15 C15       -14.1181   -2.0683   55.8244 C.ar    1  ZINC000225856071   -0.1000
     16 C16       -15.1363   -2.7872   55.2266 C.ar    1  ZINC000225856071   -0.1200
     17 C17       -14.8543   -3.9727   54.5737 C.ar    1  ZINC000225856071   -0.1100
     18 C18       -13.5541   -4.4388   54.5181 C.ar    1  ZINC000225856071   -0.1100
     19 C19       -12.5353   -3.7177   55.1121 C.ar    1  ZINC000225856071   -0.1000
     20 C20       -11.0831   -0.8276   55.4075 C.ar    1  ZINC000225856071   -0.0900
     21 C21       -10.9225   -1.2444   54.0995 C.ar    1  ZINC000225856071   -0.1000
     22 C22       -10.3492   -0.3970   53.1695 C.ar    1  ZINC000225856071   -0.1200
     23 C23        -9.9370    0.8668   53.5478 C.ar    1  ZINC000225856071   -0.0800
     24 C24        -9.3116    1.7901   52.5342 C.3     1  ZINC000225856071   -0.1200
     25 C25       -10.0989    1.2842   54.8559 C.ar    1  ZINC000225856071   -0.1200
     26 C26       -10.6756    0.4386   55.7846 C.ar    1  ZINC000225856071   -0.0600
     27 C27       -10.8521    0.8934   57.2105 C.3     1  ZINC000225856071   -0.1300
     28 C28       -12.4771   -2.2805   60.2221 C.ar    1  ZINC000225856071    0.0200
     29 C29       -12.6843   -1.3692   61.2393 C.ar    1  ZINC000225856071   -0.1400
     30 C30       -14.0331   -1.2758   61.9049 C.3     1  ZINC000225856071   -0.1100
     31 H31        -9.9304    1.0840   62.8669 H       1  ZINC000225856071    0.0600
     32 H32       -11.0328    1.4009   64.2280 H       1  ZINC000225856071    0.1000
     33 H33       -10.3902   -0.2384   63.9662 H       1  ZINC000225856071    0.0600
     34 H34        -9.6052    0.0233   61.3416 H       1  ZINC000225856071    0.1400
     35 H35        -8.2465   -2.3678   59.8719 H       1  ZINC000225856071    0.0900
     36 H36        -8.9901   -1.9492   58.3099 H       1  ZINC000225856071    0.1000
     37 H37        -8.3702   -0.6636   59.3734 H       1  ZINC000225856071    0.0800
     38 H38        -9.8530   -2.7833   56.4576 H       1  ZINC000225856071    0.4200
     39 H39       -14.3384   -1.1422   56.3345 H       1  ZINC000225856071    0.1200
     40 H40       -16.1521   -2.4231   55.2701 H       1  ZINC000225856071    0.1200
     41 H41       -15.6499   -4.5347   54.1073 H       1  ZINC000225856071    0.1200
     42 H42       -13.3339   -5.3651   54.0083 H       1  ZINC000225856071    0.1200
     43 H43       -11.5195   -4.0819   55.0688 H       1  ZINC000225856071    0.1200
     44 H44       -11.2446   -2.2320   53.8040 H       1  ZINC000225856071    0.1200
     45 H45       -10.2231   -0.7230   52.1476 H       1  ZINC000225856071    0.1200
     46 H46       -10.0896    2.3855   52.0563 H       1  ZINC000225856071    0.0700
     47 H47        -8.6033    2.4513   53.0334 H       1  ZINC000225856071    0.0700
     48 H48        -8.7897    1.2014   51.7798 H       1  ZINC000225856071    0.0700
     49 H49        -9.7772    2.2719   55.1512 H       1  ZINC000225856071    0.1200
     50 H50       -11.8223    1.3781   57.3197 H       1  ZINC000225856071    0.0800
     51 H51       -10.7994    0.0318   57.8759 H       1  ZINC000225856071    0.0700
     52 H52       -10.0623    1.5994   57.4670 H       1  ZINC000225856071    0.0700
     53 H53       -13.2813   -2.9286   59.9063 H       1  ZINC000225856071    0.1500
     54 H54       -14.0665   -1.9569   62.7553 H       1  ZINC000225856071    0.0700
     55 H55       -14.1978   -0.2551   62.2503 H       1  ZINC000225856071    0.0700
     56 H56       -14.8103   -1.5477   61.1908 H       1  ZINC000225856071    0.0700
@<TRIPOS>BOND
     1     1     2    1
     2     1    31    1
     3     1    32    1
     4     1    33    1
     5     2     3    1
     6     3    29   ar
     7     3     4   ar
     8     4     5   ar
     9     4    34    1
    10     5     6    1
    11     5     7   ar
    12     6    35    1
    13     6    36    1
    14     6    37    1
    15     7     8    1
    16     7    28   ar
    17     8     9    2
    18     8    10    2
    19     8    11   am
    20    11    12    1
    21    11    38    1
    22    12    13    1
    23    12    14    1
    24    12    20    1
    25    14    19   ar
    26    14    15   ar
    27    15    16   ar
    28    15    39    1
    29    16    17   ar
    30    16    40    1
    31    17    18   ar
    32    17    41    1
    33    18    19   ar
    34    18    42    1
    35    19    43    1
    36    20    26   ar
    37    20    21   ar
    38    21    22   ar
    39    21    44    1
    40    22    23   ar
    41    22    45    1
    42    23    24    1
    43    23    25   ar
    44    24    46    1
    45    24    47    1
    46    24    48    1
    47    25    26   ar
    48    25    49    1
    49    26    27    1
    50    27    50    1
    51    27    51    1
    52    27    52    1
    53    28    29   ar
    54    28    53    1
    55    29    30    1
    56    30    54    1
    57    30    55    1
    58    30    56    1
@<TRIPOS>SUBSTRUCTURE
     1 ZINC000225856071        1 TEMP              0 ****  ****    0 ROOT


##########                                Name:    ZINC000863216249
##########                DOCK_Rotatable_Bonds:                   5
##########                         Heavy_Atoms:                  23
##########                    Molecular_Weight:             396.351
##########                DOCK_Rotatable_Bonds:                   5
##########                       Formal_Charge:         -0.00999944
##########                     HBond_Acceptors:                   5
##########                        HBond_Donors:                   1
##########                         Heavy_Atoms:                  23
##########                          Grid_Score:          -30.304670
##########                     Grid_vdw_energy:          -30.798111
##########                      Grid_es_energy:            0.493441
##########           Internal_energy_repulsive:           28.386320

@<TRIPOS>MOLECULE
ZINC000863216249
 45 48 1 0 0
SMALL
USER_CHARGES


@<TRIPOS>ATOM
      1 S1         -8.0020    1.6513   56.8699 S.2     1  ZINC000863216249   -0.5900
      2 C2         -9.0987    0.6107   56.0668 C.2     1  ZINC000863216249    0.5600
      3 N3         -9.4522    0.8597   54.7903 N.am    1  ZINC000863216249   -0.6800
      4 C4         -8.9027    2.0245   54.0920 C.3     1  ZINC000863216249    0.1200
      5 C5         -9.4480    2.0665   52.6631 C.3     1  ZINC000863216249    0.0400
      6 N6         -8.4644    1.4754   51.7460 N.3     1  ZINC000863216249   -0.5300
      7 C7         -8.0773    0.1272   52.1862 C.3     1  ZINC000863216249    0.0000
      8 C8         -7.0993   -0.4735   51.1730 C.3     1  ZINC000863216249    0.0600
      9 O9         -5.9717    0.3951   51.0336 O.3     1  ZINC000863216249   -0.3800
     10 C10        -6.3124    1.7165   50.6056 C.3     1  ZINC000863216249    0.0600
     11 C11        -7.2824    2.3394   51.6130 C.3     1  ZINC000863216249    0.0200
     12 N12        -9.6042   -0.4610   56.7092 N.am    1  ZINC000863216249   -0.5100
     13 C13        -9.2953   -0.8346   58.0940 C.3     1  ZINC000863216249    0.1200
     14 C14       -10.1091   -2.1071   58.3497 C.3     1  ZINC000863216249   -0.1100
     15 C15        -9.5690   -3.2394   59.2146 C.3     1  ZINC000863216249   -0.1500
     16 C16       -10.7441   -2.3893   59.7058 C.3     1  ZINC000863216249   -0.1500
     17 C17       -10.8414   -2.3742   57.0602 C.ar    1  ZINC000863216249   -0.0700
     18 C18       -11.7184   -3.3787   56.6989 C.ar    1  ZINC000863216249   -0.0800
     19 C19       -12.2654   -3.4017   55.4296 C.ar    1  ZINC000863216249   -0.1000
     20 C20       -11.9325   -2.4149   54.5189 C.ar    1  ZINC000863216249   -0.0700
     21 Br21      -12.6799   -2.4438   52.7821 Br      1  ZINC000863216249   -0.0400
     22 C22       -11.0571   -1.4096   54.8745 C.ar    1  ZINC000863216249   -0.0900
     23 C23       -10.5050   -1.3767   56.1556 C.ar    1  ZINC000863216249    0.1400
     24 H24       -10.0706    0.2678   54.3340 H       1  ZINC000863216249    0.4000
     25 H25        -9.1925    2.9339   54.6184 H       1  ZINC000863216249    0.0900
     26 H26        -7.8155    1.9518   54.0640 H       1  ZINC000863216249    0.1000
     27 H27       -10.3781    1.5004   52.6124 H       1  ZINC000863216249    0.0900
     28 H28        -9.6363    3.1011   52.3764 H       1  ZINC000863216249    0.0400
     29 H29        -7.5980    0.1870   53.1634 H       1  ZINC000863216249    0.0500
     30 H30        -8.9645   -0.5025   52.2533 H       1  ZINC000863216249    0.1000
     31 H31        -6.7655   -1.4499   51.5242 H       1  ZINC000863216249    0.1000
     32 H32        -7.5958   -0.5831   50.2088 H       1  ZINC000863216249    0.0600
     33 H33        -5.4093    2.3240   50.5463 H       1  ZINC000863216249    0.1000
     34 H34        -6.7860    1.6706   49.6249 H       1  ZINC000863216249    0.0600
     35 H35        -7.5892    3.3245   51.2616 H       1  ZINC000863216249    0.0900
     36 H36        -6.7903    2.4346   52.5810 H       1  ZINC000863216249    0.0500
     37 H37        -8.2300   -1.0375   58.2034 H       1  ZINC000863216249    0.0900
     38 H38        -9.6037   -0.0437   58.7778 H       1  ZINC000863216249    0.0900
     39 H39        -9.7834   -4.2604   58.8990 H       1  ZINC000863216249    0.1100
     40 H40        -8.6026   -3.0886   59.6958 H       1  ZINC000863216249    0.1100
     41 H41       -10.5505   -1.6793   60.5100 H       1  ZINC000863216249    0.1100
     42 H42       -11.7313   -2.8512   59.7132 H       1  ZINC000863216249    0.1100
     43 H43       -11.9773   -4.1488   57.4105 H       1  ZINC000863216249    0.1400
     44 H44       -12.9505   -4.1882   55.1495 H       1  ZINC000863216249    0.1400
     45 H45       -10.8009   -0.6422   54.1590 H       1  ZINC000863216249    0.1900
@<TRIPOS>BOND
     1     1     2    2
     2     2     3   am
     3     2    12   am
     4     3     4    1
     5     3    24    1
     6     4     5    1
     7     4    25    1
     8     4    26    1
     9     5     6    1
    10     5    27    1
    11     5    28    1
    12     6    11    1
    13     6     7    1
    14     7     8    1
    15     7    29    1
    16     7    30    1
    17     8     9    1
    18     8    31    1
    19     8    32    1
    20     9    10    1
    21    10    11    1
    22    10    33    1
    23    10    34    1
    24    11    35    1
    25    11    36    1
    26    12    23    1
    27    12    13    1
    28    13    14    1
    29    13    37    1
    30    13    38    1
    31    14    16    1
    32    14    15    1
    33    14    17    1
    34    15    16    1
    35    15    39    1
    36    15    40    1
    37    16    41    1
    38    16    42    1
    39    17    23   ar
    40    17    18   ar
    41    18    19   ar
    42    18    43    1
    43    19    20   ar
    44    19    44    1
    45    20    21    1
    46    20    22   ar
    47    22    23   ar
    48    22    45    1
@<TRIPOS>SUBSTRUCTURE
     1 ZINC000863216249        1 TEMP              0 ****  ****    0 ROOT


##########                                Name:    ZINC000156038173
##########                DOCK_Rotatable_Bonds:                  10
##########                         Heavy_Atoms:                  27
##########                    Molecular_Weight:             396.357
##########                DOCK_Rotatable_Bonds:                  10
##########                       Formal_Charge:         -0.00999981
##########                     HBond_Acceptors:                  10
##########                        HBond_Donors:                   1
##########                         Heavy_Atoms:                  27
##########                          Grid_Score:          -30.283716
##########                     Grid_vdw_energy:          -30.496923
##########                      Grid_es_energy:            0.213207
##########           Internal_energy_repulsive:           41.251575

@<TRIPOS>MOLECULE
ZINC000156038173
 48 48 1 0 0
SMALL
USER_CHARGES


@<TRIPOS>ATOM
      1 C1        -10.7350   -3.5095   53.2147 C.3     1  ZINC000156038173    0.0700
      2 N2        -12.0760   -2.9235   53.2804 N.am    1  ZINC000156038173   -0.6300
      3 C3        -12.6443   -2.2609   52.1037 C.3     1  ZINC000156038173    0.1500
      4 C4        -12.5144   -0.7445   52.2600 C.3     1  ZINC000156038173   -0.1400
      5 C5        -13.1942   -0.0602   51.1021 C.2     1  ZINC000156038173    0.4700
      6 O6        -12.8785    1.0651   50.7956 O.2     1  ZINC000156038173   -0.5000
      7 O7        -14.1503   -0.7008   50.4113 O.3     1  ZINC000156038173   -0.3500
      8 C8        -14.6924   -0.0197   49.2492 C.3     1  ZINC000156038173    0.1200
      9 C9        -15.7357   -0.9130   48.5752 C.3     1  ZINC000156038173   -0.1800
     10 C10       -15.3495    1.2910   49.6867 C.3     1  ZINC000156038173   -0.1400
     11 C11       -13.5634    0.2807   48.2613 C.3     1  ZINC000156038173   -0.1800
     12 C12       -12.7871   -2.9940   54.4231 C.2     1  ZINC000156038173    0.7100
     13 O13       -13.9007   -2.5091   54.4771 O.2     1  ZINC000156038173   -0.5700
     14 N14       -12.2637   -3.6022   55.5060 N.am    1  ZINC000156038173   -0.7400
     15 C15       -13.0372   -3.6804   56.7477 C.3     1  ZINC000156038173    0.1700
     16 H16       -13.7835   -2.8861   56.7615 H       1  ZINC000156038173    0.1500
     17 C17       -12.1122   -3.5210   57.9267 C.ar    1  ZINC000156038173   -0.1300
     18 C18       -10.9443   -4.2572   57.9932 C.ar    1  ZINC000156038173   -0.0700
     19 C19       -10.0947   -4.1122   59.0742 C.ar    1  ZINC000156038173   -0.1000
     20 C20       -10.4114   -3.2308   60.0907 C.ar    1  ZINC000156038173   -0.1100
     21 C21       -11.5802   -2.4922   60.0270 C.ar    1  ZINC000156038173    0.0700
     22 F22       -11.8906   -1.6305   61.0202 F       1  ZINC000156038173   -0.1200
     23 C23       -12.4295   -2.6334   58.9402 C.ar    1  ZINC000156038173    0.1000
     24 F24       -13.5709   -1.9136   58.8759 F       1  ZINC000156038173   -0.1200
     25 C25       -13.7367   -5.0388   56.8282 C.3     1  ZINC000156038173    0.4500
     26 F26       -12.8140   -6.0551   56.5581 F       1  ZINC000156038173   -0.1700
     27 F27       -14.2639   -5.2165   58.1118 F       1  ZINC000156038173   -0.1600
     28 F28       -14.7718   -5.0867   55.8881 F       1  ZINC000156038173   -0.1700
     29 H29        -9.9971   -2.7619   53.5057 H       1  ZINC000156038173    0.0600
     30 H30       -10.6767   -4.3607   53.8931 H       1  ZINC000156038173    0.0700
     31 H31       -10.5332   -3.8420   52.1965 H       1  ZINC000156038173    0.0800
     32 H32       -12.1068   -2.5816   51.2113 H       1  ZINC000156038173    0.1000
     33 H33       -13.6969   -2.5277   52.0095 H       1  ZINC000156038173    0.0900
     34 H34       -12.9848   -0.4337   53.1928 H       1  ZINC000156038173    0.1100
     35 H35       -11.4596   -0.4699   52.2760 H       1  ZINC000156038173    0.1100
     36 H36       -16.5401   -1.1270   49.2789 H       1  ZINC000156038173    0.0600
     37 H37       -16.1427   -0.4017   47.7028 H       1  ZINC000156038173    0.0700
     38 H38       -15.2677   -1.8467   48.2635 H       1  ZINC000156038173    0.0800
     39 H39       -14.6062    1.9274   50.1669 H       1  ZINC000156038173    0.0700
     40 H40       -15.7565    1.8022   48.8143 H       1  ZINC000156038173    0.0800
     41 H41       -16.1538    1.0770   50.3906 H       1  ZINC000156038173    0.0700
     42 H42       -13.0954   -0.6530   47.9497 H       1  ZINC000156038173    0.0800
     43 H43       -13.9704    0.7920   47.3889 H       1  ZINC000156038173    0.0700
     44 H44       -12.8201    0.9171   48.7416 H       1  ZINC000156038173    0.0600
     45 H45       -11.3747   -3.9881   55.4633 H       1  ZINC000156038173    0.4100
     46 H46       -10.6954   -4.9466   57.2001 H       1  ZINC000156038173    0.1400
     47 H47        -9.1827   -4.6884   59.1246 H       1  ZINC000156038173    0.1500
     48 H48        -9.7470   -3.1187   60.9348 H       1  ZINC000156038173    0.1500
@<TRIPOS>BOND
     1     1     2    1
     2     1    29    1
     3     1    30    1
     4     1    31    1
     5     2     3    1
     6     2    12   am
     7     3     4    1
     8     3    32    1
     9     3    33    1
    10     4     5    1
    11     4    34    1
    12     4    35    1
    13     5     6    2
    14     5     7    1
    15     7     8    1
    16     8     9    1
    17     8    10    1
    18     8    11    1
    19     9    36    1
    20     9    37    1
    21     9    38    1
    22    10    39    1
    23    10    40    1
    24    10    41    1
    25    11    42    1
    26    11    43    1
    27    11    44    1
    28    12    13    2
    29    12    14   am
    30    14    15    1
    31    14    45    1
    32    15    16    1
    33    15    17    1
    34    15    25    1
    35    17    23   ar
    36    17    18   ar
    37    18    19   ar
    38    18    46    1
    39    19    20   ar
    40    19    47    1
    41    20    21   ar
    42    20    48    1
    43    21    22    1
    44    21    23   ar
    45    23    24    1
    46    25    26    1
    47    25    27    1
    48    25    28    1
@<TRIPOS>SUBSTRUCTURE
     1 ZINC000156038173        1 TEMP              0 ****  ****    0 ROOT


##########                                Name:    ZINC000431691749
##########                DOCK_Rotatable_Bonds:                   4
##########                         Heavy_Atoms:                  24
##########                    Molecular_Weight:             328.454
##########                DOCK_Rotatable_Bonds:                   4
##########                       Formal_Charge:         -0.00999957
##########                     HBond_Acceptors:                   4
##########                        HBond_Donors:                   0
##########                         Heavy_Atoms:                  24
##########                          Grid_Score:          -30.283560
##########                     Grid_vdw_energy:          -29.631390
##########                      Grid_es_energy:           -0.652171
##########           Internal_energy_repulsive:          142.282379

@<TRIPOS>MOLECULE
ZINC000431691749
 52 54 1 0 0
SMALL
USER_CHARGES


@<TRIPOS>ATOM
      1 C1         -9.5950    0.3551   54.9045 C.3     1  ZINC000431691749   -0.1200
      2 C2        -10.3030   -0.9371   54.5879 C.ar    1  ZINC000431691749   -0.0800
      3 C3        -10.5619   -1.2793   53.2741 C.ar    1  ZINC000431691749   -0.1200
      4 C4        -11.2114   -2.4646   52.9835 C.ar    1  ZINC000431691749   -0.1100
      5 C5        -11.6013   -3.3079   54.0069 C.ar    1  ZINC000431691749   -0.1100
      6 C6        -11.3416   -2.9660   55.3211 C.ar    1  ZINC000431691749   -0.0800
      7 C7        -11.7671   -3.8852   56.4370 C.3     1  ZINC000431691749    0.2000
      8 H8        -11.2746   -4.8505   56.3203 H       1  ZINC000431691749    0.1100
      9 N9        -11.3899   -3.2970   57.7246 N.am    1  ZINC000431691749   -0.5700
     10 C10       -10.6226   -3.9157   58.6438 C.2     1  ZINC000431691749    0.5200
     11 O11       -10.1330   -5.0219   58.5642 O.2     1  ZINC000431691749   -0.4400
     12 C12       -10.4984   -2.9404   59.7975 C.3     1  ZINC000431691749    0.0900
     13 H13       -10.9239   -3.3655   60.7065 H       1  ZINC000431691749    0.1300
     14 C14        -9.0349   -2.5534   60.0200 C.3     1  ZINC000431691749   -0.1500
     15 N15       -11.2838   -1.7761   59.3527 N.am    1  ZINC000431691749   -0.6000
     16 C16       -11.4994   -0.5309   60.0937 C.3     1  ZINC000431691749    0.1500
     17 C17       -12.9718   -0.0898   60.1419 C.3     1  ZINC000431691749   -0.1600
     18 C18       -13.1014   -0.9352   61.4199 C.3     1  ZINC000431691749   -0.1400
     19 C19       -11.5904   -0.7280   61.6161 C.3     1  ZINC000431691749   -0.1500
     20 C20       -11.7597   -2.0771   58.1310 C.2     1  ZINC000431691749    0.7000
     21 O21       -12.4541   -1.3276   57.4729 O.2     1  ZINC000431691749   -0.5300
     22 C22       -13.2842   -4.0774   56.3890 C.3     1  ZINC000431691749   -0.0700
     23 C23       -13.9219   -2.9137   55.6275 C.3     1  ZINC000431691749   -0.1400
     24 C24       -13.6093   -5.3920   55.6769 C.3     1  ZINC000431691749   -0.1400
     25 C25       -13.8384   -4.1189   57.8145 C.3     1  ZINC000431691749   -0.1600
     26 C26       -10.6885   -1.7830   55.6113 C.ar    1  ZINC000431691749   -0.1100
     27 H27        -8.5187    0.1844   54.9235 H       1  ZINC000431691749    0.0700
     28 H28        -9.8322    1.0958   54.1409 H       1  ZINC000431691749    0.0700
     29 H29        -9.9223    0.7194   55.8783 H       1  ZINC000431691749    0.0700
     30 H30       -10.2572   -0.6204   52.4743 H       1  ZINC000431691749    0.1200
     31 H31       -11.4143   -2.7317   51.9569 H       1  ZINC000431691749    0.1200
     32 H32       -12.1092   -4.2336   53.7800 H       1  ZINC000431691749    0.1100
     33 H33        -8.6342   -2.1085   59.1092 H       1  ZINC000431691749    0.0700
     34 H34        -8.9695   -1.8330   60.8355 H       1  ZINC000431691749    0.0800
     35 H35        -8.4585   -3.4429   60.2740 H       1  ZINC000431691749    0.0800
     36 H36       -10.8139    0.2628   59.7964 H       1  ZINC000431691749    0.1000
     37 H37       -13.1020    0.9792   60.3105 H       1  ZINC000431691749    0.0900
     38 H38       -13.5670   -0.4636   59.3088 H       1  ZINC000431691749    0.0700
     39 H39       -13.7105   -0.4671   62.1931 H       1  ZINC000431691749    0.0700
     40 H40       -13.3791   -1.9723   61.2310 H       1  ZINC000431691749    0.0800
     41 H41       -11.0704   -1.6169   61.9732 H       1  ZINC000431691749    0.1000
     42 H42       -11.3430    0.1666   62.1878 H       1  ZINC000431691749    0.0900
     43 H43       -13.5270   -2.8842   54.6120 H       1  ZINC000431691749    0.0600
     44 H44       -15.0027   -3.0507   55.5932 H       1  ZINC000431691749    0.0600
     45 H45       -13.6903   -1.9771   56.1347 H       1  ZINC000431691749    0.0600
     46 H46       -13.1549   -6.2211   56.2194 H       1  ZINC000431691749    0.0500
     47 H47       -14.6901   -5.5291   55.6426 H       1  ZINC000431691749    0.0600
     48 H48       -13.2144   -5.3625   54.6614 H       1  ZINC000431691749    0.0500
     49 H49       -13.1624   -3.5857   58.4828 H       1  ZINC000431691749    0.0700
     50 H50       -14.8198   -3.6452   57.8366 H       1  ZINC000431691749    0.0400
     51 H51       -13.9279   -5.1555   58.1395 H       1  ZINC000431691749    0.1000
     52 H52       -10.4854   -1.5160   56.6379 H       1  ZINC000431691749    0.1300
@<TRIPOS>BOND
     1     1     2    1
     2     1    27    1
     3     1    28    1
     4     1    29    1
     5     2    26   ar
     6     2     3   ar
     7     3     4   ar
     8     3    30    1
     9     4     5   ar
    10     4    31    1
    11     5     6   ar
    12     5    32    1
    13     6     7    1
    14     6    26   ar
    15     7     8    1
    16     7     9    1
    17     7    22    1
    18     9    20   am
    19     9    10   am
    20    10    11    2
    21    10    12    1
    22    12    13    1
    23    12    14    1
    24    12    15    1
    25    14    33    1
    26    14    34    1
    27    14    35    1
    28    15    16    1
    29    15    20   am
    30    16    19    1
    31    16    17    1
    32    16    36    1
    33    17    18    1
    34    17    37    1
    35    17    38    1
    36    18    19    1
    37    18    39    1
    38    18    40    1
    39    19    41    1
    40    19    42    1
    41    20    21    2
    42    22    23    1
    43    22    24    1
    44    22    25    1
    45    23    43    1
    46    23    44    1
    47    23    45    1
    48    24    46    1
    49    24    47    1
    50    24    48    1
    51    25    49    1
    52    25    50    1
    53    25    51    1
    54    26    52    1
@<TRIPOS>SUBSTRUCTURE
     1 ZINC000431691749        1 TEMP              0 ****  ****    0 ROOT


##########                                Name:    ZINC000794876634
##########                DOCK_Rotatable_Bonds:                   4
##########                         Heavy_Atoms:                  24
##########                    Molecular_Weight:             389.249
##########                DOCK_Rotatable_Bonds:                   4
##########                       Formal_Charge:        -4.47035e-08
##########                     HBond_Acceptors:                   5
##########                        HBond_Donors:                   0
##########                         Heavy_Atoms:                  24
##########                          Grid_Score:          -30.253868
##########                     Grid_vdw_energy:          -29.882036
##########                      Grid_es_energy:           -0.371832
##########           Internal_energy_repulsive:           18.796213

@<TRIPOS>MOLECULE
ZINC000794876634
 41 43 1 0 0
SMALL
USER_CHARGES


@<TRIPOS>ATOM
      1 C1        -16.0454   -3.1044   53.0046 C.3     1  ZINC000794876634    0.0200
      2 O2        -14.6383   -3.0050   52.7763 O.3     1  ZINC000794876634   -0.3000
      3 C3        -13.8215   -3.3201   53.8144 C.ar    1  ZINC000794876634    0.1300
      4 C4        -14.3657   -3.7543   55.0161 C.ar    1  ZINC000794876634   -0.1800
      5 C5        -13.5432   -4.0751   56.0730 C.ar    1  ZINC000794876634   -0.0400
      6 C6        -14.1379   -4.5459   57.3752 C.3     1  ZINC000794876634   -0.1200
      7 C7        -12.1531   -3.9637   55.9368 C.ar    1  ZINC000794876634   -0.1000
      8 C8        -11.2747   -4.3046   57.0595 C.2     1  ZINC000794876634    0.0600
      9 C9        -10.8786   -3.3351   57.9349 C.2     1  ZINC000794876634   -0.1700
     10 C10       -10.0056   -3.4896   59.1112 C.2     1  ZINC000794876634    0.5700
     11 O11        -9.4925   -4.5264   59.4907 O.2     1  ZINC000794876634   -0.4900
     12 N12        -9.8750   -2.2847   59.6910 N.am    1  ZINC000794876634   -0.5300
     13 C13        -9.0776   -2.0314   60.8937 C.3     1  ZINC000794876634    0.0800
     14 C14       -10.5879   -1.3108   59.0092 C.ar    1  ZINC000794876634    0.3700
     15 N15       -10.7334   -0.0105   59.2323 N.ar    1  ZINC000794876634   -0.4900
     16 C16       -11.4691    0.7525   58.4494 C.ar    1  ZINC000794876634    0.1800
     17 C17       -12.1306    0.2357   57.3496 C.ar    1  ZINC000794876634   -0.1800
     18 Br18      -13.1777    1.3591   56.2463 Br      1  ZINC000794876634   -0.0200
     19 C19       -12.0151   -1.1176   57.0668 C.ar    1  ZINC000794876634    0.0000
     20 C20       -11.2270   -1.8975   57.9067 C.ar    1  ZINC000794876634   -0.1400
     21 C21       -11.6054   -3.5256   54.7229 C.ar    1  ZINC000794876634   -0.1400
     22 C22       -12.4380   -3.2117   53.6683 C.ar    1  ZINC000794876634    0.0900
     23 O23       -11.9104   -2.7868   52.4891 O.3     1  ZINC000794876634   -0.3000
     24 C24       -10.4853   -2.7306   52.3987 C.3     1  ZINC000794876634    0.0200
     25 H25       -16.5812   -2.8258   52.0973 H       1  ZINC000794876634    0.1000
     26 H26       -16.2979   -4.1297   53.2754 H       1  ZINC000794876634    0.0600
     27 H27       -16.3302   -2.4338   53.8154 H       1  ZINC000794876634    0.0600
     28 H28       -15.4371   -3.8405   55.1220 H       1  ZINC000794876634    0.1400
     29 H29       -14.2354   -5.6314   57.3586 H       1  ZINC000794876634    0.0800
     30 H30       -13.4874   -4.2520   58.1990 H       1  ZINC000794876634    0.0700
     31 H31       -15.1210   -4.0948   57.5099 H       1  ZINC000794876634    0.0700
     32 H32       -10.9407   -5.3227   57.1941 H       1  ZINC000794876634    0.1500
     33 H33        -8.6208   -2.9624   61.2294 H       1  ZINC000794876634    0.0900
     34 H34        -8.2973   -1.3052   60.6660 H       1  ZINC000794876634    0.0800
     35 H35        -9.7215   -1.6383   61.6804 H       1  ZINC000794876634    0.0800
     36 H36       -11.5580    1.8057   58.6715 H       1  ZINC000794876634    0.1800
     37 H37       -12.5191   -1.5523   56.2162 H       1  ZINC000794876634    0.1600
     38 H38       -10.5346   -3.4378   54.6122 H       1  ZINC000794876634    0.1400
     39 H39       -10.1061   -1.9852   53.0978 H       1  ZINC000794876634    0.0500
     40 H40       -10.0668   -3.7063   52.6455 H       1  ZINC000794876634    0.0600
     41 H41       -10.1961   -2.4573   51.3839 H       1  ZINC000794876634    0.1100
@<TRIPOS>BOND
     1     1     2    1
     2     1    25    1
     3     1    26    1
     4     1    27    1
     5     2     3    1
     6     3    22   ar
     7     3     4   ar
     8     4     5   ar
     9     4    28    1
    10     5     6    1
    11     5     7   ar
    12     6    29    1
    13     6    30    1
    14     6    31    1
    15     7     8    1
    16     7    21   ar
    17     8     9    2
    18     8    32    1
    19     9    20    1
    20     9    10    1
    21    10    11    2
    22    10    12   am
    23    12    13    1
    24    12    14    1
    25    13    33    1
    26    13    34    1
    27    13    35    1
    28    14    20   ar
    29    14    15   ar
    30    15    16   ar
    31    16    17   ar
    32    16    36    1
    33    17    18    1
    34    17    19   ar
    35    19    20   ar
    36    19    37    1
    37    21    22   ar
    38    21    38    1
    39    22    23    1
    40    23    24    1
    41    24    39    1
    42    24    40    1
    43    24    41    1
@<TRIPOS>SUBSTRUCTURE
     1 ZINC000794876634        1 TEMP              0 ****  ****    0 ROOT


##########                                Name:    ZINC000560467340
##########                DOCK_Rotatable_Bonds:                   7
##########                         Heavy_Atoms:                  24
##########                    Molecular_Weight:             369.481
##########                DOCK_Rotatable_Bonds:                   7
##########                       Formal_Charge:          -0.0199997
##########                     HBond_Acceptors:                   7
##########                        HBond_Donors:                   2
##########                         Heavy_Atoms:                  24
##########                          Grid_Score:          -30.249413
##########                     Grid_vdw_energy:          -29.487152
##########                      Grid_es_energy:           -0.762260
##########           Internal_energy_repulsive:           17.645760

@<TRIPOS>MOLECULE
ZINC000560467340
 44 46 1 0 0
SMALL
USER_CHARGES


@<TRIPOS>ATOM
      1 O1         -9.6186   -3.3104   61.0460 O.2     1  ZINC000560467340   -0.9600
      2 S2         -9.4995   -2.0229   60.4565 S.o2    1  ZINC000560467340    2.7100
      3 O3         -8.5261   -1.7063   59.4709 O.2     1  ZINC000560467340   -0.9500
      4 N4        -10.9738   -1.6776   59.7858 N.am    1  ZINC000560467340   -1.0900
      5 C5        -11.4628   -2.4610   58.6486 C.3     1  ZINC000560467340    0.1400
      6 C6        -12.9014   -2.0509   58.3275 C.3     1  ZINC000560467340   -0.0500
      7 C7        -12.9437   -0.5838   57.8956 C.3     1  ZINC000560467340   -0.0700
      8 C8        -11.8012   -0.3045   56.9532 C.ar    1  ZINC000560467340   -0.0900
      9 C9        -10.6296    0.2501   57.4334 C.ar    1  ZINC000560467340   -0.0900
     10 C10        -9.5813    0.5067   56.5702 C.ar    1  ZINC000560467340   -0.1500
     11 C11        -9.7048    0.2077   55.2238 C.ar    1  ZINC000560467340    0.1000
     12 F12        -8.6806    0.4576   54.3792 F       1  ZINC000560467340   -0.1400
     13 C13       -10.8786   -0.3482   54.7441 C.ar    1  ZINC000560467340   -0.1500
     14 C14       -11.9238   -0.6084   55.6101 C.ar    1  ZINC000560467340   -0.0900
     15 C15       -13.8002   -2.2653   59.5628 C.3     1  ZINC000560467340   -0.1300
     16 C16       -15.1444   -2.7597   58.9732 C.3     1  ZINC000560467340   -0.1200
     17 C17       -14.6911   -3.6725   57.8069 C.3     1  ZINC000560467340   -0.1600
     18 C18       -13.4678   -2.9456   57.2111 C.3     1  ZINC000560467340    0.1100
     19 H19       -13.7737   -2.3345   56.3620 H       1  ZINC000560467340    0.0600
     20 O20       -12.4850   -3.8979   56.7996 O.3     1  ZINC000560467340   -0.5500
     21 C21        -9.2516   -0.8897   61.7827 C.2     1  ZINC000560467340   -0.6900
     22 C22        -8.5687   -1.2107   62.8826 C.2     1  ZINC000560467340   -0.1000
     23 S23        -8.5314    0.1659   63.9767 S.3     1  ZINC000560467340    0.1500
     24 C24        -9.4733    1.1285   62.8454 C.2     1  ZINC000560467340   -0.2200
     25 C25        -9.7458    0.4032   61.7597 C.2     1  ZINC000560467340   -0.0700
     26 H26       -11.5135   -0.9566   60.1459 H       1  ZINC000560467340    0.4200
     27 H27       -10.8298   -2.2758   57.7807 H       1  ZINC000560467340    0.0600
     28 H28       -11.4346   -3.5215   58.8991 H       1  ZINC000560467340    0.0800
     29 H29       -13.8885   -0.3805   57.3914 H       1  ZINC000560467340    0.0800
     30 H30       -12.8552    0.0561   58.7734 H       1  ZINC000560467340    0.0800
     31 H31       -10.5335    0.4833   58.4835 H       1  ZINC000560467340    0.1300
     32 H32        -8.6663    0.9407   56.9454 H       1  ZINC000560467340    0.1400
     33 H33       -10.9762   -0.5816   53.6941 H       1  ZINC000560467340    0.1400
     34 H34       -12.8395   -1.0423   55.2362 H       1  ZINC000560467340    0.1300
     35 H35       -13.3710   -3.0215   60.2202 H       1  ZINC000560467340    0.0700
     36 H36       -13.9411   -1.3272   60.0996 H       1  ZINC000560467340    0.0800
     37 H37       -15.7051   -3.3294   59.7143 H       1  ZINC000560467340    0.0700
     38 H38       -15.7345   -1.9221   58.6012 H       1  ZINC000560467340    0.0700
     39 H39       -14.4058   -4.6558   58.1808 H       1  ZINC000560467340    0.0800
     40 H40       -15.4821   -3.7613   57.0622 H       1  ZINC000560467340    0.0700
     41 H41       -11.6833   -3.5018   56.4317 H       1  ZINC000560467340    0.3800
     42 H42        -8.1092   -2.1695   63.0725 H       1  ZINC000560467340    0.1800
     43 H43        -9.7800    2.1519   63.0037 H       1  ZINC000560467340    0.1700
     44 H44       -10.3158    0.7925   60.9290 H       1  ZINC000560467340    0.1500
@<TRIPOS>BOND
     1     1     2    2
     2     2     3    2
     3     2     4   am
     4     2    21    1
     5     4     5    1
     6     4    26    1
     7     5     6    1
     8     5    27    1
     9     5    28    1
    10     6    18    1
    11     6     7    1
    12     6    15    1
    13     7     8    1
    14     7    29    1
    15     7    30    1
    16     8    14   ar
    17     8     9   ar
    18     9    10   ar
    19     9    31    1
    20    10    11   ar
    21    10    32    1
    22    11    12    1
    23    11    13   ar
    24    13    14   ar
    25    13    33    1
    26    14    34    1
    27    15    16    1
    28    15    35    1
    29    15    36    1
    30    16    17    1
    31    16    37    1
    32    16    38    1
    33    17    18    1
    34    17    39    1
    35    17    40    1
    36    18    19    1
    37    18    20    1
    38    20    41    1
    39    21    25    1
    40    21    22    2
    41    22    23    1
    42    22    42    1
    43    23    24    1
    44    24    25    2
    45    24    43    1
    46    25    44    1
@<TRIPOS>SUBSTRUCTURE
     1 ZINC000560467340        1 TEMP              0 ****  ****    0 ROOT


##########                                Name:    ZINC000939075213
##########                DOCK_Rotatable_Bonds:                   7
##########                         Heavy_Atoms:                  24
##########                    Molecular_Weight:             327.426
##########                DOCK_Rotatable_Bonds:                   7
##########                       Formal_Charge:          -0.0200002
##########                     HBond_Acceptors:                   5
##########                        HBond_Donors:                   2
##########                         Heavy_Atoms:                  24
##########                          Grid_Score:          -30.242100
##########                     Grid_vdw_energy:          -29.918756
##########                      Grid_es_energy:           -0.323344
##########           Internal_energy_repulsive:            6.115566

@<TRIPOS>MOLECULE
ZINC000939075213
 49 51 1 0 0
SMALL
USER_CHARGES


@<TRIPOS>ATOM
      1 C1        -14.0139   -5.2850   57.2459 C.3     1  ZINC000939075213   -0.1400
      2 C2        -13.4214   -4.0427   56.5777 C.3     1  ZINC000939075213   -0.1100
      3 H3        -14.0768   -3.1815   56.7079 H       1  ZINC000939075213    0.0900
      4 C4        -13.1363   -4.3018   55.0774 C.3     1  ZINC000939075213    0.1100
      5 N5        -12.0692   -3.3475   54.7257 N.am    1  ZINC000939075213   -0.6200
      6 C6        -11.8113   -2.8783   53.4888 C.2     1  ZINC000939075213    0.5600
      7 O7        -12.4884   -3.2444   52.5452 O.2     1  ZINC000939075213   -0.5400
      8 C8        -10.7534   -1.9602   53.2865 C.2     1  ZINC000939075213   -0.2600
      9 C9        -10.9185   -0.6536   53.6099 C.2     1  ZINC000939075213    0.0400
     10 C10        -9.8596    0.2656   53.4076 C.2     1  ZINC000939075213    0.0000
     11 C11        -9.8847    1.6181   53.6945 C.2     1  ZINC000939075213   -0.1500
     12 C12        -8.6355    2.1361   53.3401 C.2     1  ZINC000939075213   -0.2200
     13 C13        -7.8848    1.1180   52.8543 C.2     1  ZINC000939075213    0.0200
     14 N14        -8.6153   -0.0255   52.8949 N.pl3   1  ZINC000939075213   -0.5000
     15 C15       -11.3335   -2.9914   55.9478 C.3     1  ZINC000939075213    0.0900
     16 C16       -11.9982   -3.7454   57.1194 C.3     1  ZINC000939075213    0.1400
     17 H17       -11.4660   -4.6725   57.3328 H       1  ZINC000939075213    0.1100
     18 N18       -12.0589   -2.8982   58.3131 N.am    1  ZINC000939075213   -0.7200
     19 C19       -10.9616   -2.7315   59.0776 C.2     1  ZINC000939075213    0.5300
     20 O20        -9.9242   -3.2840   58.7783 O.2     1  ZINC000939075213   -0.5300
     21 C21       -11.0237   -1.8586   60.3045 C.3     1  ZINC000939075213   -0.0600
     22 C22       -12.3803   -2.0083   60.9958 C.3     1  ZINC000939075213   -0.1300
     23 C23        -9.9035   -2.2082   61.2565 C.2     1  ZINC000939075213   -0.1700
     24 C24        -9.3254   -1.1325   61.7171 C.2     1  ZINC000939075213   -0.1400
     25 C25        -9.9634    0.1139   61.1492 C.3     1  ZINC000939075213   -0.1100
     26 C26       -10.7718   -0.3803   59.9271 C.3     1  ZINC000939075213   -0.1100
     27 H27       -14.1288   -5.1031   58.3145 H       1  ZINC000939075213    0.0600
     28 H28       -14.9880   -5.5035   56.8079 H       1  ZINC000939075213    0.0700
     29 H29       -13.3476   -6.1335   57.0913 H       1  ZINC000939075213    0.0600
     30 H30       -12.7940   -5.3258   54.9275 H       1  ZINC000939075213    0.0700
     31 H31       -14.0291   -4.1087   54.4827 H       1  ZINC000939075213    0.0800
     32 H32        -9.8146   -2.3002   52.8748 H       1  ZINC000939075213    0.1300
     33 H33       -11.8573   -0.3137   54.0217 H       1  ZINC000939075213    0.1500
     34 H34       -10.7133    2.1702   54.1129 H       1  ZINC000939075213    0.1400
     35 H35        -8.3240    3.1656   53.4365 H       1  ZINC000939075213    0.1400
     36 H36        -6.8693    1.2020   52.4963 H       1  ZINC000939075213    0.1600
     37 H37        -8.3130   -0.9006   52.6056 H       1  ZINC000939075213    0.4100
     38 H38       -10.2909   -3.2955   55.8546 H       1  ZINC000939075213    0.0800
     39 H39       -11.3946   -1.9164   56.1174 H       1  ZINC000939075213    0.0700
     40 H40       -12.8889   -2.4572   58.5531 H       1  ZINC000939075213    0.4000
     41 H41       -12.5302   -3.0500   61.2801 H       1  ZINC000939075213    0.0600
     42 H42       -12.4052   -1.3813   61.8870 H       1  ZINC000939075213    0.0700
     43 H43       -13.1721   -1.7008   60.3128 H       1  ZINC000939075213    0.0600
     44 H44        -9.6190   -3.2158   61.5212 H       1  ZINC000939075213    0.1300
     45 H45        -8.4996   -1.1332   62.4132 H       1  ZINC000939075213    0.1300
     46 H46       -10.6270    0.5696   61.8843 H       1  ZINC000939075213    0.0800
     47 H47        -9.1977    0.8236   60.8362 H       1  ZINC000939075213    0.0800
     48 H48       -10.1836   -0.3046   59.0124 H       1  ZINC000939075213    0.0900
     49 H49       -11.7108    0.1650   59.8327 H       1  ZINC000939075213    0.0800
@<TRIPOS>BOND
     1     1     2    1
     2     1    27    1
     3     1    28    1
     4     1    29    1
     5     2     3    1
     6     2    16    1
     7     2     4    1
     8     4     5    1
     9     4    30    1
    10     4    31    1
    11     5     6   am
    12     5    15    1
    13     6     7    2
    14     6     8    1
    15     8     9    2
    16     8    32    1
    17     9    10    1
    18     9    33    1
    19    10    14    1
    20    10    11    2
    21    11    12    1
    22    11    34    1
    23    12    13    2
    24    12    35    1
    25    13    14    1
    26    13    36    1
    27    14    37    1
    28    15    16    1
    29    15    38    1
    30    15    39    1
    31    16    17    1
    32    16    18    1
    33    18    19   am
    34    18    40    1
    35    19    20    2
    36    19    21    1
    37    21    26    1
    38    21    22    1
    39    21    23    1
    40    22    41    1
    41    22    42    1
    42    22    43    1
    43    23    24    2
    44    23    44    1
    45    24    25    1
    46    24    45    1
    47    25    26    1
    48    25    46    1
    49    25    47    1
    50    26    48    1
    51    26    49    1
@<TRIPOS>SUBSTRUCTURE
     1 ZINC000939075213        1 TEMP              0 ****  ****    0 ROOT


##########                                Name:    ZINC001345966764
##########                DOCK_Rotatable_Bonds:                  10
##########                         Heavy_Atoms:                  22
##########                    Molecular_Weight:             333.258
##########                DOCK_Rotatable_Bonds:                  10
##########                       Formal_Charge:           0.0099997
##########                     HBond_Acceptors:                  11
##########                        HBond_Donors:                   4
##########                         Heavy_Atoms:                  22
##########                          Grid_Score:          -30.229500
##########                     Grid_vdw_energy:          -28.621994
##########                      Grid_es_energy:           -1.607505
##########           Internal_energy_repulsive:            5.406482

@<TRIPOS>MOLECULE
ZINC001345966764
 38 38 1 0 0
SMALL
USER_CHARGES


@<TRIPOS>ATOM
      1 N1        -15.9567   -3.4962   58.2303 N.3     1  ZINC001345966764   -0.8400
      2 C2        -14.6639   -4.1867   58.1306 C.3     1  ZINC001345966764    0.0200
      3 C3        -14.0210   -3.8727   56.7783 C.3     1  ZINC001345966764    0.2800
      4 F4        -14.8123   -4.3999   55.7520 F       1  ZINC001345966764   -0.1900
      5 F5        -13.9174   -2.4862   56.6218 F       1  ZINC001345966764   -0.1800
      6 C6        -12.6260   -4.4982   56.7192 C.3     1  ZINC001345966764    0.0800
      7 N7        -11.7633   -3.8629   57.7185 N.am    1  ZINC001345966764   -0.7000
      8 C8        -10.6912   -4.5226   58.2003 C.2     1  ZINC001345966764    0.5100
      9 O9        -10.4414   -5.6432   57.8076 O.2     1  ZINC001345966764   -0.5100
     10 C10        -9.8101   -3.8738   59.2184 C.2     1  ZINC001345966764    0.5100
     11 O11        -8.8558   -4.4749   59.6661 O.2     1  ZINC001345966764   -0.5100
     12 N12       -10.0755   -2.6212   59.6390 N.am    1  ZINC001345966764   -0.7000
     13 C13        -9.2108   -1.9845   60.6357 C.3     1  ZINC001345966764    0.1200
     14 C14       -10.0538   -1.0863   61.5431 C.3     1  ZINC001345966764    0.0600
     15 H15        -9.6130   -1.0331   62.5385 H       1  ZINC001345966764    0.0900
     16 C16       -10.1788    0.3277   60.9340 C.3     1  ZINC001345966764   -0.1400
     17 C17       -11.6235    0.7569   61.2746 C.3     1  ZINC001345966764   -0.1500
     18 C18       -12.2004   -0.4487   62.0492 C.3     1  ZINC001345966764    0.0300
     19 H19       -12.0906   -0.2975   63.1230 H       1  ZINC001345966764    0.1200
     20 C20       -13.6728   -0.6576   61.6897 C.3     1  ZINC001345966764    0.4600
     21 F21       -14.3659    0.5479   61.8434 F       1  ZINC001345966764   -0.1700
     22 F22       -13.7722   -1.0867   60.3619 F       1  ZINC001345966764   -0.1700
     23 F23       -14.2266   -1.6250   62.5350 F       1  ZINC001345966764   -0.1700
     24 O24       -11.4093   -1.5791   61.6192 O.3     1  ZINC001345966764   -0.3500
     25 H25       -16.5948   -3.8187   57.5184 H       1  ZINC001345966764    0.3500
     26 H26       -16.3556   -3.6067   59.1505 H       1  ZINC001345966764    0.3600
     27 H27       -14.0079   -3.8473   58.9323 H       1  ZINC001345966764    0.1100
     28 H28       -14.8186   -5.2621   58.2184 H       1  ZINC001345966764    0.0700
     29 H29       -12.6974   -5.5658   56.9270 H       1  ZINC001345966764    0.1100
     30 H30       -12.2025   -4.3489   55.7260 H       1  ZINC001345966764    0.1100
     31 H31       -11.9636   -2.9676   58.0333 H       1  ZINC001345966764    0.4200
     32 H32       -10.8390   -2.1412   59.2820 H       1  ZINC001345966764    0.4200
     33 H33        -8.7225   -2.7520   61.2363 H       1  ZINC001345966764    0.1000
     34 H34        -8.4551   -1.3834   60.1300 H       1  ZINC001345966764    0.0900
     35 H35        -9.4603    1.0065   61.3936 H       1  ZINC001345966764    0.0900
     36 H36       -10.0355    0.2925   59.8540 H       1  ZINC001345966764    0.0900
     37 H37       -11.6193    1.6478   61.9026 H       1  ZINC001345966764    0.1000
     38 H38       -12.1944    0.9338   60.3631 H       1  ZINC001345966764    0.0900
@<TRIPOS>BOND
     1     1     2    1
     2     1    25    1
     3     1    26    1
     4     2     3    1
     5     2    27    1
     6     2    28    1
     7     3     4    1
     8     3     5    1
     9     3     6    1
    10     6     7    1
    11     6    29    1
    12     6    30    1
    13     7     8   am
    14     7    31    1
    15     8     9    2
    16     8    10    1
    17    10    11    2
    18    10    12   am
    19    12    13    1
    20    12    32    1
    21    13    14    1
    22    13    33    1
    23    13    34    1
    24    14    15    1
    25    14    24    1
    26    14    16    1
    27    16    17    1
    28    16    35    1
    29    16    36    1
    30    17    18    1
    31    17    37    1
    32    17    38    1
    33    18    19    1
    34    18    20    1
    35    18    24    1
    36    20    21    1
    37    20    22    1
    38    20    23    1
@<TRIPOS>SUBSTRUCTURE
     1 ZINC001345966764        1 TEMP              0 ****  ****    0 ROOT


##########                                Name:    ZINC000119180466
##########                DOCK_Rotatable_Bonds:                  10
##########                         Heavy_Atoms:                  23
##########                    Molecular_Weight:             350.405
##########                DOCK_Rotatable_Bonds:                  10
##########                       Formal_Charge:           0.0299997
##########                     HBond_Acceptors:                   8
##########                        HBond_Donors:                   3
##########                         Heavy_Atoms:                  23
##########                          Grid_Score:          -30.179419
##########                     Grid_vdw_energy:          -30.302868
##########                      Grid_es_energy:            0.123449
##########           Internal_energy_repulsive:           13.361183

@<TRIPOS>MOLECULE
ZINC000119180466
 44 44 1 0 0
SMALL
USER_CHARGES


@<TRIPOS>ATOM
      1 C1         -8.5864   -1.1042   52.1789 C.3     1  ZINC000119180466   -0.1300
      2 S2        -10.1180   -2.0759   52.1565 S.3     1  ZINC000119180466   -0.2200
      3 C3        -11.3848   -0.8508   52.5865 C.3     1  ZINC000119180466   -0.0700
      4 H4        -11.3696   -0.0410   51.8570 H       1  ZINC000119180466    0.1100
      5 C5        -11.0976   -0.2875   53.9797 C.3     1  ZINC000119180466    0.0800
      6 O6        -12.1026    0.6685   54.3234 O.3     1  ZINC000119180466   -0.5600
      7 C7        -12.7620   -1.5174   52.5798 C.3     1  ZINC000119180466    0.1900
      8 H8        -13.4784   -0.8762   53.0933 H       1  ZINC000119180466    0.1000
      9 C9        -13.2163   -1.7348   51.1351 C.3     1  ZINC000119180466   -0.1700
     10 N10       -12.6826   -2.8089   53.2665 N.am    1  ZINC000119180466   -0.7200
     11 C11       -13.1602   -2.9359   54.5204 C.2     1  ZINC000119180466    0.7100
     12 O12       -13.6583   -1.9789   55.0811 O.2     1  ZINC000119180466   -0.6000
     13 N13       -13.0858   -4.1238   55.1528 N.am    1  ZINC000119180466   -0.7400
     14 C14       -13.6065   -4.2623   56.5151 C.3     1  ZINC000119180466    0.2000
     15 H15       -14.5093   -3.6609   56.6219 H       1  ZINC000119180466    0.1000
     16 C16       -13.9370   -5.7311   56.7879 C.3     1  ZINC000119180466   -0.1600
     17 C17       -12.5685   -3.7896   57.5001 C.ar    1  ZINC000119180466   -0.0600
     18 C18       -11.3422   -4.4238   57.5696 C.ar    1  ZINC000119180466   -0.1100
     19 C19       -10.3901   -3.9901   58.4732 C.ar    1  ZINC000119180466   -0.0600
     20 C20       -10.6642   -2.9220   59.3068 C.ar    1  ZINC000119180466   -0.1800
     21 C21        -9.6265   -2.4496   60.2921 C.3     1  ZINC000119180466    0.5100
     22 F22       -10.2601   -1.9837   61.4492 F       1  ZINC000119180466   -0.1800
     23 F23        -8.7777   -3.5120   60.6209 F       1  ZINC000119180466   -0.1800
     24 F24        -8.8783   -1.4145   59.7212 F       1  ZINC000119180466   -0.1800
     25 C25       -11.8899   -2.2870   59.2363 C.ar    1  ZINC000119180466   -0.0600
     26 C26       -12.8407   -2.7181   58.3301 C.ar    1  ZINC000119180466   -0.1100
     27 H27        -8.4394   -0.6805   53.1724 H       1  ZINC000119180466    0.0800
     28 H28        -7.7434   -1.7490   51.9305 H       1  ZINC000119180466    0.1000
     29 H29        -8.6560   -0.2992   51.4473 H       1  ZINC000119180466    0.0800
     30 H30       -11.1036   -1.0987   54.7078 H       1  ZINC000119180466    0.0500
     31 H31       -10.1206    0.1955   53.9820 H       1  ZINC000119180466    0.0600
     32 H32       -12.0339    1.0032   55.2280 H       1  ZINC000119180466    0.3800
     33 H33       -12.4998   -2.3760   50.6215 H       1  ZINC000119180466    0.0700
     34 H34       -14.1974   -2.2097   51.1304 H       1  ZINC000119180466    0.0700
     35 H35       -13.2753   -0.7739   50.6241 H       1  ZINC000119180466    0.0700
     36 H36       -12.2865   -3.5728   52.8188 H       1  ZINC000119180466    0.4100
     37 H37       -12.6874   -4.8870   54.7059 H       1  ZINC000119180466    0.4000
     38 H38       -14.3244   -5.8342   57.8014 H       1  ZINC000119180466    0.0700
     39 H39       -14.6877   -6.0730   56.0754 H       1  ZINC000119180466    0.0700
     40 H40       -13.0342   -6.3325   56.6811 H       1  ZINC000119180466    0.0600
     41 H41       -11.1282   -5.2583   56.9184 H       1  ZINC000119180466    0.1300
     42 H42        -9.4323   -4.4861   58.5280 H       1  ZINC000119180466    0.1400
     43 H43       -12.1040   -1.4523   59.8874 H       1  ZINC000119180466    0.1400
     44 H44       -13.7984   -2.2221   58.2750 H       1  ZINC000119180466    0.1400
@<TRIPOS>BOND
     1     1     2    1
     2     1    27    1
     3     1    28    1
     4     1    29    1
     5     2     3    1
     6     3     4    1
     7     3     5    1
     8     3     7    1
     9     5     6    1
    10     5    30    1
    11     5    31    1
    12     6    32    1
    13     7     8    1
    14     7     9    1
    15     7    10    1
    16     9    33    1
    17     9    34    1
    18     9    35    1
    19    10    11   am
    20    10    36    1
    21    11    12    2
    22    11    13   am
    23    13    14    1
    24    13    37    1
    25    14    15    1
    26    14    16    1
    27    14    17    1
    28    16    38    1
    29    16    39    1
    30    16    40    1
    31    17    26   ar
    32    17    18   ar
    33    18    19   ar
    34    18    41    1
    35    19    20   ar
    36    19    42    1
    37    20    21    1
    38    20    25   ar
    39    21    22    1
    40    21    23    1
    41    21    24    1
    42    25    26   ar
    43    25    43    1
    44    26    44    1
@<TRIPOS>SUBSTRUCTURE
     1 ZINC000119180466        1 TEMP              0 ****  ****    0 ROOT


##########                                Name:    ZINC000192150625
##########                DOCK_Rotatable_Bonds:                   5
##########                         Heavy_Atoms:                  28
##########                    Molecular_Weight:             377.443
##########                DOCK_Rotatable_Bonds:                   5
##########                       Formal_Charge:           0.0199997
##########                     HBond_Acceptors:                   6
##########                        HBond_Donors:                   1
##########                         Heavy_Atoms:                  28
##########                          Grid_Score:          -30.129951
##########                     Grid_vdw_energy:          -30.136679
##########                      Grid_es_energy:            0.006728
##########           Internal_energy_repulsive:           17.673990

@<TRIPOS>MOLECULE
ZINC000192150625
 51 54 1 0 0
SMALL
USER_CHARGES


@<TRIPOS>ATOM
      1 C1         -9.1627    3.0397   65.1279 C.3     1  ZINC000192150625   -0.0800
      2 C2         -9.6945    2.0501   64.1234 C.2     1  ZINC000192150625    0.0400
      3 C3        -10.7868    2.2344   63.3696 C.2     1  ZINC000192150625   -0.1800
      4 C4        -11.6919    3.4393   63.3671 C.3     1  ZINC000192150625   -0.0800
      5 C5        -10.9245    1.0267   62.5463 C.ar    1  ZINC000192150625   -0.1000
      6 C6        -11.8357    0.6075   61.5791 C.ar    1  ZINC000192150625   -0.0700
      7 C7        -11.6721   -0.6284   60.9774 C.ar    1  ZINC000192150625    0.1200
      8 N8        -12.5816   -1.0575   60.0051 N.am    1  ZINC000192150625   -0.6400
      9 C9        -13.2744   -2.1992   60.1875 C.2     1  ZINC000192150625    0.5100
     10 O10       -13.1092   -2.8549   61.1956 O.2     1  ZINC000192150625   -0.4900
     11 C11       -14.2454   -2.6573   59.1495 C.2     1  ZINC000192150625    0.5100
     12 O12       -15.4320   -2.4473   59.2937 O.2     1  ZINC000192150625   -0.5200
     13 N13       -13.8040   -3.3040   58.0524 N.am    1  ZINC000192150625   -0.5800
     14 C14       -14.7464   -3.7554   57.0196 C.3     1  ZINC000192150625    0.0500
     15 C15       -14.2899   -3.2094   55.6630 C.3     1  ZINC000192150625   -0.1200
     16 C16       -12.8379   -3.6235   55.4133 C.3     1  ZINC000192150625   -0.0500
     17 C17       -12.3963   -3.1169   54.0644 C.ar    1  ZINC000192150625   -0.0300
     18 C18       -13.2778   -2.4366   53.2384 C.ar    1  ZINC000192150625   -0.1700
     19 C19       -12.8370   -1.9867   52.0082 C.ar    1  ZINC000192150625    0.1000
     20 N20       -11.5953   -2.1986   51.6178 N.ar    1  ZINC000192150625   -0.4900
     21 C21       -10.7299   -2.8417   52.3770 C.ar    1  ZINC000192150625    0.1000
     22 C22       -11.0972   -3.3153   53.6224 C.ar    1  ZINC000192150625   -0.1700
     23 C23       -11.9414   -3.0270   56.5006 C.3     1  ZINC000192150625   -0.1200
     24 C24       -12.3706   -3.5656   57.8637 C.3     1  ZINC000192150625    0.1100
     25 C25       -10.6028   -1.4457   61.3386 C.ar    1  ZINC000192150625   -0.1100
     26 C26        -9.6988   -1.0369   62.2940 C.ar    1  ZINC000192150625   -0.0800
     27 C27        -9.8472    0.2003   62.9083 C.ar    1  ZINC000192150625    0.0500
     28 O28        -9.1384    0.8572   63.8499 O.3     1  ZINC000192150625   -0.1900
     29 H29        -8.2631    2.6370   65.5935 H       1  ZINC000192150625    0.0800
     30 H30        -8.9230    3.9759   64.6238 H       1  ZINC000192150625    0.0900
     31 H31        -9.9173    3.2219   65.8930 H       1  ZINC000192150625    0.0900
     32 H32       -11.3320    4.1625   62.6352 H       1  ZINC000192150625    0.0700
     33 H33       -12.7048    3.1323   63.1069 H       1  ZINC000192150625    0.0700
     34 H34       -11.6933    3.8947   64.3575 H       1  ZINC000192150625    0.0700
     35 H35       -12.6640    1.2424   61.3010 H       1  ZINC000192150625    0.1400
     36 H36       -12.7137   -0.5336   59.1996 H       1  ZINC000192150625    0.4300
     37 H37       -14.7606   -4.8449   56.9889 H       1  ZINC000192150625    0.0700
     38 H38       -15.7446   -3.3812   57.2470 H       1  ZINC000192150625    0.1600
     39 H39       -14.9247   -3.6152   54.8752 H       1  ZINC000192150625    0.0800
     40 H40       -14.3628   -2.1218   55.6654 H       1  ZINC000192150625    0.0700
     41 H41       -12.7614   -4.7106   55.4358 H       1  ZINC000192150625    0.0900
     42 H42       -14.2961   -2.2605   53.5523 H       1  ZINC000192150625    0.1300
     43 H43       -13.5174   -1.4558   51.3589 H       1  ZINC000192150625    0.1600
     44 H44        -9.7214   -2.9966   52.0232 H       1  ZINC000192150625    0.1600
     45 H45       -10.3837   -3.8410   54.2397 H       1  ZINC000192150625    0.1300
     46 H46       -10.9043   -3.3030   56.3090 H       1  ZINC000192150625    0.0800
     47 H47       -12.0362   -1.9411   56.4951 H       1  ZINC000192150625    0.0700
     48 H48       -11.8007   -3.0687   58.6489 H       1  ZINC000192150625    0.1000
     49 H49       -12.1927   -4.6401   57.9045 H       1  ZINC000192150625    0.0800
     50 H50       -10.4820   -2.4088   60.8651 H       1  ZINC000192150625    0.1400
     51 H51        -8.8738   -1.6787   62.5659 H       1  ZINC000192150625    0.1400
@<TRIPOS>BOND
     1     1     2    1
     2     1    29    1
     3     1    30    1
     4     1    31    1
     5     2    28    1
     6     2     3    2
     7     3     4    1
     8     3     5    1
     9     4    32    1
    10     4    33    1
    11     4    34    1
    12     5    27   ar
    13     5     6   ar
    14     6     7   ar
    15     6    35    1
    16     7     8    1
    17     7    25   ar
    18     8     9   am
    19     8    36    1
    20     9    10    2
    21     9    11    1
    22    11    12    2
    23    11    13   am
    24    13    24    1
    25    13    14    1
    26    14    15    1
    27    14    37    1
    28    14    38    1
    29    15    16    1
    30    15    39    1
    31    15    40    1
    32    16    17    1
    33    16    23    1
    34    16    41    1
    35    17    22   ar
    36    17    18   ar
    37    18    19   ar
    38    18    42    1
    39    19    20   ar
    40    19    43    1
    41    20    21   ar
    42    21    22   ar
    43    21    44    1
    44    22    45    1
    45    23    24    1
    46    23    46    1
    47    23    47    1
    48    24    48    1
    49    24    49    1
    50    25    26   ar
    51    25    50    1
    52    26    27   ar
    53    26    51    1
    54    27    28    1
@<TRIPOS>SUBSTRUCTURE
     1 ZINC000192150625        1 TEMP              0 ****  ****    0 ROOT


##########                                Name:    ZINC001625935330
##########                DOCK_Rotatable_Bonds:                   5
##########                         Heavy_Atoms:                  25
##########                    Molecular_Weight:             327.385
##########                DOCK_Rotatable_Bonds:                   5
##########                       Formal_Charge:           0.0199995
##########                     HBond_Acceptors:                   4
##########                        HBond_Donors:                   1
##########                         Heavy_Atoms:                  25
##########                          Grid_Score:          -30.120031
##########                     Grid_vdw_energy:          -28.598429
##########                      Grid_es_energy:           -1.521603
##########           Internal_energy_repulsive:            7.197854

@<TRIPOS>MOLECULE
ZINC001625935330
 42 44 1 0 0
SMALL
USER_CHARGES


@<TRIPOS>ATOM
      1 C1         -9.2419   -3.5175   60.1771 C.3     1  ZINC001625935330   -0.1600
      2 C2         -9.8584   -2.5109   59.2035 C.3     1  ZINC001625935330    0.1800
      3 H3         -9.0945   -2.1637   58.5079 H       1  ZINC001625935330    0.1000
      4 N4        -10.9424   -3.1545   58.4571 N.am    1  ZINC001625935330   -0.7100
      5 C5        -11.1307   -2.8613   57.1552 C.2     1  ZINC001625935330    0.5800
      6 O6        -10.4024   -2.0620   56.6008 O.2     1  ZINC001625935330   -0.5300
      7 C7        -12.2259   -3.5135   56.3997 C.ar    1  ZINC001625935330    0.0800
      8 C8        -12.6222   -2.9914   55.1733 C.ar    1  ZINC001625935330   -0.1000
      9 C9        -13.6565   -3.6194   54.4738 C.ar    1  ZINC001625935330    0.0000
     10 C10       -14.1135   -3.0993   53.1615 C.ar    1  ZINC001625935330   -0.0600
     11 C11       -13.2077   -2.4855   52.2986 C.ar    1  ZINC001625935330   -0.1000
     12 C12       -13.6382   -2.0040   51.0790 C.ar    1  ZINC001625935330   -0.1200
     13 C13       -14.9661   -2.1298   50.7125 C.ar    1  ZINC001625935330   -0.1100
     14 C14       -15.8697   -2.7382   51.5652 C.ar    1  ZINC001625935330   -0.1200
     15 C15       -15.4491   -3.2281   52.7849 C.ar    1  ZINC001625935330   -0.1000
     16 C16       -14.2485   -4.7497   55.0425 C.ar    1  ZINC001625935330   -0.1400
     17 C17       -13.7950   -5.2053   56.2677 C.ar    1  ZINC001625935330    0.1100
     18 N18       -12.8156   -4.5941   56.8982 N.ar    1  ZINC001625935330   -0.4600
     19 C19       -10.4068   -1.3378   59.9742 C.ar    1  ZINC001625935330   -0.0900
     20 C20        -9.7839   -0.1054   59.8910 C.ar    1  ZINC001625935330   -0.0800
     21 C21       -10.2808    0.9771   60.5954 C.ar    1  ZINC001625935330   -0.1100
     22 C22       -11.4021    0.8340   61.3855 C.ar    1  ZINC001625935330   -0.0700
     23 C23       -12.0363   -0.4072   61.4737 C.ar    1  ZINC001625935330   -0.0200
     24 C24       -13.2011   -0.5632   62.2920 C.1     1  ZINC001625935330    0.2500
     25 N25       -14.1251   -0.6870   62.9412 N.1     1  ZINC001625935330   -0.4100
     26 C26       -11.5324   -1.4940   60.7566 C.ar    1  ZINC001625935330   -0.0600
     27 H27        -8.4354   -3.0387   60.7324 H       1  ZINC001625935330    0.0700
     28 H28       -10.0058   -3.8648   60.8726 H       1  ZINC001625935330    0.0600
     29 H29        -8.8454   -4.3661   59.6196 H       1  ZINC001625935330    0.0700
     30 H30       -11.5245   -3.7916   58.8998 H       1  ZINC001625935330    0.4100
     31 H31       -12.1388   -2.1148   54.7681 H       1  ZINC001625935330    0.1500
     32 H32       -12.1708   -2.3865   52.5839 H       1  ZINC001625935330    0.1300
     33 H33       -12.9372   -1.5278   50.4095 H       1  ZINC001625935330    0.1300
     34 H34       -15.2989   -1.7513   49.7573 H       1  ZINC001625935330    0.1300
     35 H35       -16.9053   -2.8335   51.2742 H       1  ZINC001625935330    0.1300
     36 H36       -16.1552   -3.7032   53.4498 H       1  ZINC001625935330    0.1300
     37 H37       -15.0507   -5.2616   54.5320 H       1  ZINC001625935330    0.1400
     38 H38       -14.2498   -6.0787   56.7115 H       1  ZINC001625935330    0.1700
     39 H39        -8.9055    0.0122   59.2738 H       1  ZINC001625935330    0.1300
     40 H40        -9.7892    1.9362   60.5266 H       1  ZINC001625935330    0.1400
     41 H41       -11.7887    1.6795   61.9351 H       1  ZINC001625935330    0.1400
     42 H42       -12.0181   -2.4565   60.8204 H       1  ZINC001625935330    0.1400
@<TRIPOS>BOND
     1     1     2    1
     2     1    27    1
     3     1    28    1
     4     1    29    1
     5     2     3    1
     6     2     4    1
     7     2    19    1
     8     4     5   am
     9     4    30    1
    10     5     6    2
    11     5     7    1
    12     7    18   ar
    13     7     8   ar
    14     8     9   ar
    15     8    31    1
    16     9    10    1
    17     9    16   ar
    18    10    15   ar
    19    10    11   ar
    20    11    12   ar
    21    11    32    1
    22    12    13   ar
    23    12    33    1
    24    13    14   ar
    25    13    34    1
    26    14    15   ar
    27    14    35    1
    28    15    36    1
    29    16    17   ar
    30    16    37    1
    31    17    18   ar
    32    17    38    1
    33    19    26   ar
    34    19    20   ar
    35    20    21   ar
    36    20    39    1
    37    21    22   ar
    38    21    40    1
    39    22    23   ar
    40    22    41    1
    41    23    24    1
    42    23    26   ar
    43    24    25    3
    44    26    42    1
@<TRIPOS>SUBSTRUCTURE
     1 ZINC001625935330        1 TEMP              0 ****  ****    0 ROOT


##########                                Name:    ZINC000845755710
##########                DOCK_Rotatable_Bonds:                   3
##########                         Heavy_Atoms:                  24
##########                    Molecular_Weight:             349.814
##########                DOCK_Rotatable_Bonds:                   3
##########                       Formal_Charge:         -0.00999974
##########                     HBond_Acceptors:                   6
##########                        HBond_Donors:                   0
##########                         Heavy_Atoms:                  24
##########                          Grid_Score:          -30.106300
##########                     Grid_vdw_energy:          -29.423056
##########                      Grid_es_energy:           -0.683245
##########           Internal_energy_repulsive:           13.319148

@<TRIPOS>MOLECULE
ZINC000845755710
 44 47 1 0 0
SMALL
USER_CHARGES


@<TRIPOS>ATOM
      1 C1        -13.0484   -1.2640   51.2413 C.3     1  ZINC000845755710   -0.1700
      2 C2        -12.3012   -1.0574   52.5604 C.3     1  ZINC000845755710    0.2600
      3 C3        -12.1572   -2.3973   53.2848 C.3     1  ZINC000845755710   -0.0900
      4 C4        -11.0987   -2.2720   54.3830 C.3     1  ZINC000845755710   -0.1300
      5 C5        -10.9325   -3.6243   55.0831 C.3     1  ZINC000845755710    0.1100
      6 N6        -12.2470   -4.0744   55.5607 N.am    1  ZINC000845755710   -0.6000
      7 C7        -12.4286   -4.4162   56.8517 C.2     1  ZINC000845755710    0.5900
      8 O8        -13.5220   -4.7873   57.2346 O.2     1  ZINC000845755710   -0.5200
      9 C9        -11.3049   -4.3405   57.7975 C.2     1  ZINC000845755710   -0.2200
     10 C10       -10.3677   -5.2971   58.0378 C.2     1  ZINC000845755710    0.0600
     11 O11        -9.5044   -4.8651   58.9644 O.3     1  ZINC000845755710   -0.1800
     12 C12        -9.8150   -3.6205   59.3828 C.ar    1  ZINC000845755710    0.0500
     13 C13        -9.2398   -2.7592   60.3087 C.ar    1  ZINC000845755710   -0.0900
     14 C14        -9.7939   -1.5164   60.5309 C.ar    1  ZINC000845755710   -0.0800
     15 C15       -10.9259   -1.1127   59.8375 C.ar    1  ZINC000845755710   -0.0400
     16 Cl16      -11.6082    0.4562   60.1325 Cl      1  ZINC000845755710   -0.0600
     17 C17       -11.5105   -1.9547   58.9138 C.ar    1  ZINC000845755710   -0.0500
     18 C18       -10.9558   -3.2081   58.6786 C.ar    1  ZINC000845755710   -0.0900
     19 C19       -13.3601   -4.1442   54.6043 C.3     1  ZINC000845755710    0.1000
     20 C20       -13.4991   -2.7860   53.9094 C.3     1  ZINC000845755710   -0.1300
     21 O21       -10.9978   -0.5116   52.2968 O.3     1  ZINC000845755710   -0.3700
     22 C22       -11.1564    0.9188   52.4551 C.3     1  ZINC000845755710    0.0100
     23 C23       -12.1700    0.9955   53.6241 C.3     1  ZINC000845755710    0.0200
     24 O24       -13.0281   -0.1386   53.3868 O.3     1  ZINC000845755710   -0.3800
     25 H25       -13.1543   -0.3073   50.7300 H       1  ZINC000845755710    0.0600
     26 H26       -12.4873   -1.9531   50.6100 H       1  ZINC000845755710    0.0800
     27 H27       -14.0357   -1.6790   51.4441 H       1  ZINC000845755710    0.0800
     28 H28       -11.8524   -3.1641   52.5727 H       1  ZINC000845755710    0.0900
     29 H29       -10.1488   -1.9723   53.9402 H       1  ZINC000845755710    0.0800
     30 H30       -11.4146   -1.5228   55.1090 H       1  ZINC000845755710    0.0800
     31 H31       -10.5303   -4.3531   54.3795 H       1  ZINC000845755710    0.0700
     32 H32       -10.2536   -3.5168   55.9291 H       1  ZINC000845755710    0.1000
     33 H33       -10.3268   -6.2614   57.5533 H       1  ZINC000845755710    0.2200
     34 H34        -8.3590   -3.0632   60.8547 H       1  ZINC000845755710    0.1500
     35 H35        -9.3427   -0.8508   61.2518 H       1  ZINC000845755710    0.1500
     36 H36       -12.3916   -1.6407   58.3739 H       1  ZINC000845755710    0.1400
     37 H37       -13.1559   -4.9153   53.8615 H       1  ZINC000845755710    0.0800
     38 H38       -14.2831   -4.3797   55.1341 H       1  ZINC000845755710    0.0900
     39 H39       -13.7925   -2.0320   54.6399 H       1  ZINC000845755710    0.0700
     40 H40       -14.2578   -2.8522   53.1297 H       1  ZINC000845755710    0.0800
     41 H41       -10.2111    1.3886   52.7267 H       1  ZINC000845755710    0.1100
     42 H42       -11.5682    1.3682   51.5514 H       1  ZINC000845755710    0.0800
     43 H43       -11.6603    0.8992   54.5828 H       1  ZINC000845755710    0.0800
     44 H44       -12.7385    1.9245   53.5806 H       1  ZINC000845755710    0.1000
@<TRIPOS>BOND
     1     1     2    1
     2     1    25    1
     3     1    26    1
     4     1    27    1
     5     2    24    1
     6     2     3    1
     7     2    21    1
     8     3    20    1
     9     3     4    1
    10     3    28    1
    11     4     5    1
    12     4    29    1
    13     4    30    1
    14     5     6    1
    15     5    31    1
    16     5    32    1
    17     6     7   am
    18     6    19    1
    19     7     8    2
    20     7     9    1
    21     9    18    1
    22     9    10    2
    23    10    11    1
    24    10    33    1
    25    11    12    1
    26    12    18   ar
    27    12    13   ar
    28    13    14   ar
    29    13    34    1
    30    14    15   ar
    31    14    35    1
    32    15    16    1
    33    15    17   ar
    34    17    18   ar
    35    17    36    1
    36    19    20    1
    37    19    37    1
    38    19    38    1
    39    20    39    1
    40    20    40    1
    41    21    22    1
    42    22    23    1
    43    22    41    1
    44    22    42    1
    45    23    24    1
    46    23    43    1
    47    23    44    1
@<TRIPOS>SUBSTRUCTURE
     1 ZINC000845755710        1 TEMP              0 ****  ****    0 ROOT


##########                                Name:    ZINC000482139334
##########                DOCK_Rotatable_Bonds:                   4
##########                         Heavy_Atoms:                  26
##########                    Molecular_Weight:             348.376
##########                DOCK_Rotatable_Bonds:                   4
##########                       Formal_Charge:           0.0300002
##########                     HBond_Acceptors:                   5
##########                        HBond_Donors:                   1
##########                         Heavy_Atoms:                  26
##########                          Grid_Score:          -30.101557
##########                     Grid_vdw_energy:          -29.206514
##########                      Grid_es_energy:           -0.895042
##########           Internal_energy_repulsive:           14.224992

@<TRIPOS>MOLECULE
ZINC000482139334
 43 47 1 0 0
SMALL
USER_CHARGES


@<TRIPOS>ATOM
      1 O1        -11.0447   -0.6332   57.2207 O.2     1  ZINC000482139334   -0.4800
      2 C2        -10.5013    0.3300   57.7183 C.2     1  ZINC000482139334    0.5500
      3 N3         -9.6680    1.0897   56.9801 N.am    1  ZINC000482139334   -0.6100
      4 C4         -9.4276    0.7667   55.6537 C.2     1  ZINC000482139334    0.4300
      5 N5         -8.4344    1.2155   54.9299 N.2     1  ZINC000482139334   -0.4800
      6 C6         -8.5308    0.6779   53.6856 C.2     1  ZINC000482139334    0.0400
      7 C7         -7.6078    0.9205   52.5497 C.ar    1  ZINC000482139334   -0.0500
      8 C8         -6.7724    2.0352   52.5532 C.ar    1  ZINC000482139334   -0.0800
      9 C9         -5.9150    2.2560   51.4941 C.ar    1  ZINC000482139334   -0.1300
     10 C10        -5.8838    1.3737   50.4295 C.ar    1  ZINC000482139334   -0.0800
     11 C11        -6.7105    0.2648   50.4183 C.ar    1  ZINC000482139334   -0.1600
     12 C12        -7.5688    0.0296   51.4760 C.ar    1  ZINC000482139334    0.1300
     13 F13        -8.3762   -1.0536   51.4649 F       1  ZINC000482139334   -0.1200
     14 C14        -9.6245   -0.1203   53.6740 C.2     1  ZINC000482139334   -0.0600
     15 O15       -10.1723   -0.0617   54.9056 O.3     1  ZINC000482139334   -0.1800
     16 C16       -10.7627    0.6813   59.1603 C.3     1  ZINC000482139334   -0.1800
     17 H17       -10.6301    1.7316   59.4199 H       1  ZINC000482139334    0.1400
     18 C18       -11.8640   -0.0939   59.8887 C.3     1  ZINC000482139334   -0.1200
     19 C19       -10.3971   -0.3560   60.2149 C.3     1  ZINC000482139334   -0.0500
     20 C20        -9.7213   -1.6820   59.8276 C.3     1  ZINC000482139334   -0.0700
     21 C21        -9.3215   -2.2592   61.2037 C.3     1  ZINC000482139334   -0.0900
     22 C22        -9.1766   -1.0566   62.1126 C.ar    1  ZINC000482139334   -0.0800
     23 C23        -8.5508   -0.9313   63.3409 C.ar    1  ZINC000482139334   -0.1100
     24 C24        -8.5460    0.2831   63.9991 C.ar    1  ZINC000482139334   -0.1100
     25 C25        -9.1684    1.3781   63.4299 C.ar    1  ZINC000482139334   -0.1200
     26 C26        -9.7934    1.2558   62.2043 C.ar    1  ZINC000482139334   -0.1000
     27 C27        -9.7995    0.0399   61.5418 C.ar    1  ZINC000482139334   -0.0700
     28 H28        -9.2364    1.8625   57.3769 H       1  ZINC000482139334    0.4400
     29 H29        -6.7957    2.7258   53.3833 H       1  ZINC000482139334    0.1300
     30 H30        -5.2672    3.1202   51.4966 H       1  ZINC000482139334    0.1400
     31 H31        -5.2113    1.5514   49.6032 H       1  ZINC000482139334    0.1400
     32 H32        -6.6824   -0.4205   49.5841 H       1  ZINC000482139334    0.1400
     33 H33        -9.9880   -0.6982   52.8371 H       1  ZINC000482139334    0.2200
     34 H34       -12.4553    0.4463   60.6281 H       1  ZINC000482139334    0.1200
     35 H35       -12.3993   -0.8579   59.3249 H       1  ZINC000482139334    0.1100
     36 H36       -10.4243   -2.3420   59.3195 H       1  ZINC000482139334    0.0800
     37 H37        -8.8403   -1.5030   59.2112 H       1  ZINC000482139334    0.0900
     38 H38       -10.1018   -2.9227   61.5764 H       1  ZINC000482139334    0.0800
     39 H39        -8.3741   -2.7928   61.1290 H       1  ZINC000482139334    0.0800
     40 H40        -8.0645   -1.7866   63.7865 H       1  ZINC000482139334    0.1200
     41 H41        -8.0568    0.3768   64.9574 H       1  ZINC000482139334    0.1300
     42 H42        -9.1664    2.3283   63.9432 H       1  ZINC000482139334    0.1300
     43 H43       -10.2798    2.1121   61.7608 H       1  ZINC000482139334    0.1200
@<TRIPOS>BOND
     1     1     2    2
     2     2     3   am
     3     2    16    1
     4     3     4    1
     5     3    28    1
     6     4    15    1
     7     4     5    2
     8     5     6    1
     9     6     7    1
    10     6    14    2
    11     7    12   ar
    12     7     8   ar
    13     8     9   ar
    14     8    29    1
    15     9    10   ar
    16     9    30    1
    17    10    11   ar
    18    10    31    1
    19    11    12   ar
    20    11    32    1
    21    12    13    1
    22    14    15    1
    23    14    33    1
    24    16    17    1
    25    16    19    1
    26    16    18    1
    27    18    19    1
    28    18    34    1
    29    18    35    1
    30    19    27    1
    31    19    20    1
    32    20    21    1
    33    20    36    1
    34    20    37    1
    35    21    22    1
    36    21    38    1
    37    21    39    1
    38    22    27   ar
    39    22    23   ar
    40    23    24   ar
    41    23    40    1
    42    24    25   ar
    43    24    41    1
    44    25    26   ar
    45    25    42    1
    46    26    27   ar
    47    26    43    1
@<TRIPOS>SUBSTRUCTURE
     1 ZINC000482139334        1 TEMP              0 ****  ****    0 ROOT


##########                                Name:    ZINC000416583757
##########                DOCK_Rotatable_Bonds:                   7
##########                         Heavy_Atoms:                  20
##########                    Molecular_Weight:             380.693
##########                DOCK_Rotatable_Bonds:                   7
##########                       Formal_Charge:         1.04308e-07
##########                     HBond_Acceptors:                   7
##########                        HBond_Donors:                   1
##########                         Heavy_Atoms:                  20
##########                          Grid_Score:          -30.098814
##########                     Grid_vdw_energy:          -29.518652
##########                      Grid_es_energy:           -0.580161
##########           Internal_energy_repulsive:            7.067672

@<TRIPOS>MOLECULE
ZINC000416583757
 35 35 1 0 0
SMALL
USER_CHARGES


@<TRIPOS>ATOM
      1 C1        -14.0068   -1.0521   59.8812 C.3     1  ZINC000416583757   -0.1500
      2 C2        -13.5110   -2.4419   59.4768 C.3     1  ZINC000416583757   -0.0200
      3 H3        -12.8743   -2.8440   60.2649 H       1  ZINC000416583757    0.1200
      4 C4        -14.6639   -3.3344   59.2743 C.1     1  ZINC000416583757    0.2100
      5 N5        -15.5537   -4.0231   59.1180 N.1     1  ZINC000416583757   -0.4200
      6 C6        -12.7107   -2.3397   58.1769 C.3     1  ZINC000416583757    0.1300
      7 N7        -11.6875   -3.3879   58.1499 N.am    1  ZINC000416583757   -1.0100
      8 C8        -12.0368   -4.7413   57.7113 C.3     1  ZINC000416583757    0.0800
      9 S9        -10.1361   -3.0429   58.6153 S.o2    1  ZINC000416583757    2.7800
     10 O10        -9.4355   -4.2792   58.6238 O.2     1  ZINC000416583757   -0.9700
     11 O11        -9.7256   -1.9223   57.8440 O.2     1  ZINC000416583757   -0.9700
     12 N12       -10.1989   -2.5300   60.1887 N.am    1  ZINC000416583757   -1.1300
     13 C13        -8.9674   -2.1483   60.8843 C.3     1  ZINC000416583757    0.1600
     14 C14        -9.2111   -0.8959   61.6862 C.ar    1  ZINC000416583757   -0.0800
     15 C15        -8.6733   -0.7715   62.9532 C.ar    1  ZINC000416583757   -0.0800
     16 C16        -8.8963    0.3785   63.6898 C.ar    1  ZINC000416583757   -0.0300
     17 Cl17       -8.2203    0.5351   65.2812 Cl      1  ZINC000416583757   -0.0500
     18 C18        -9.6575    1.4034   63.1577 C.ar    1  ZINC000416583757   -0.0700
     19 C19       -10.1954    1.2783   61.8895 C.ar    1  ZINC000416583757   -0.0800
     20 Br20      -11.2362    2.6790   61.1613 Br      1  ZINC000416583757   -0.0300
     21 C21        -9.9675    0.1305   61.1521 C.ar    1  ZINC000416583757   -0.0700
     22 H22       -14.6765   -1.1399   60.7366 H       1  ZINC000416583757    0.0700
     23 H23       -13.1555   -0.4263   60.1488 H       1  ZINC000416583757    0.0800
     24 H24       -14.5418   -0.6000   59.0459 H       1  ZINC000416583757    0.0700
     25 H25       -13.3812   -2.4644   57.3266 H       1  ZINC000416583757    0.0900
     26 H26       -12.2312   -1.3624   58.1213 H       1  ZINC000416583757    0.1000
     27 H27       -11.8895   -4.8237   56.6344 H       1  ZINC000416583757    0.0700
     28 H28       -11.4004   -5.4643   58.2214 H       1  ZINC000416583757    0.0800
     29 H29       -13.0807   -4.9431   57.9516 H       1  ZINC000416583757    0.0800
     30 H30       -11.0510   -2.4824   60.6496 H       1  ZINC000416583757    0.4200
     31 H31        -8.6628   -2.9540   61.5523 H       1  ZINC000416583757    0.0800
     32 H32        -8.1795   -1.9645   60.1539 H       1  ZINC000416583757    0.1000
     33 H33        -8.0792   -1.5721   63.3686 H       1  ZINC000416583757    0.1500
     34 H34        -9.8322    2.3011   63.7323 H       1  ZINC000416583757    0.1500
     35 H35       -10.3875    0.0328   60.1618 H       1  ZINC000416583757    0.1400
@<TRIPOS>BOND
     1     1     2    1
     2     1    22    1
     3     1    23    1
     4     1    24    1
     5     2     3    1
     6     2     4    1
     7     2     6    1
     8     4     5    3
     9     6     7    1
    10     6    25    1
    11     6    26    1
    12     7     8    1
    13     7     9   am
    14     8    27    1
    15     8    28    1
    16     8    29    1
    17     9    10    2
    18     9    11    2
    19     9    12   am
    20    12    13    1
    21    12    30    1
    22    13    14    1
    23    13    31    1
    24    13    32    1
    25    14    21   ar
    26    14    15   ar
    27    15    16   ar
    28    15    33    1
    29    16    17    1
    30    16    18   ar
    31    18    19   ar
    32    18    34    1
    33    19    20    1
    34    19    21   ar
    35    21    35    1
@<TRIPOS>SUBSTRUCTURE
     1 ZINC000416583757        1 TEMP              0 ****  ****    0 ROOT


##########                                Name:    ZINC000854500114
##########                DOCK_Rotatable_Bonds:                   7
##########                         Heavy_Atoms:                  24
##########                    Molecular_Weight:             399.288
##########                DOCK_Rotatable_Bonds:                   7
##########                       Formal_Charge:          -0.0399992
##########                     HBond_Acceptors:                   7
##########                        HBond_Donors:                   2
##########                         Heavy_Atoms:                  24
##########                          Grid_Score:          -30.085064
##########                     Grid_vdw_energy:          -29.897627
##########                      Grid_es_energy:           -0.187438
##########           Internal_energy_repulsive:           76.456474

@<TRIPOS>MOLECULE
ZINC000854500114
 47 49 1 0 0
SMALL
USER_CHARGES


@<TRIPOS>ATOM
      1 O1        -11.5665    0.4266   55.8415 O.2     1  ZINC000854500114   -0.5800
      2 C2        -10.5116   -0.1657   55.7279 C.2     1  ZINC000854500114    0.6600
      3 N3        -10.3253   -1.0197   54.7019 N.am    1  ZINC000854500114   -0.7100
      4 C4        -11.3968   -1.2382   53.7269 C.3     1  ZINC000854500114    0.1600
      5 C5        -10.8192   -1.8551   52.4364 C.3     1  ZINC000854500114   -0.1400
      6 C6        -11.0377   -3.3784   52.6128 C.3     1  ZINC000854500114   -0.1300
      7 C7        -12.4205   -3.4471   53.3072 C.3     1  ZINC000854500114   -0.1300
      8 C8        -12.4149   -2.2504   54.2806 C.3     1  ZINC000854500114   -0.1300
      9 O9         -9.5269    0.0350   56.6238 O.3     1  ZINC000854500114   -0.3600
     10 C10        -9.9271    0.3518   57.9832 C.3     1  ZINC000854500114    0.1000
     11 C11        -9.4221   -0.7383   58.9306 C.3     1  ZINC000854500114    0.1500
     12 H12        -8.3330   -0.7151   58.9669 H       1  ZINC000854500114    0.0900
     13 C13        -9.8903   -2.1092   58.4321 C.3     1  ZINC000854500114   -0.1300
     14 C14        -9.5022   -3.1793   59.4551 C.3     1  ZINC000854500114   -0.1200
     15 C15       -10.1947   -2.8879   60.7883 C.3     1  ZINC000854500114   -0.1400
     16 C16        -9.7300   -1.5258   61.3135 C.3     1  ZINC000854500114    0.0900
     17 N17        -9.9648   -0.5109   60.2769 N.am    1  ZINC000854500114   -0.6100
     18 C18       -10.6687    0.6044   60.5547 C.2     1  ZINC000854500114    0.5900
     19 O19       -10.8561    1.4369   59.6880 O.2     1  ZINC000854500114   -0.4900
     20 C20       -11.2105    0.8148   61.9066 C.2     1  ZINC000854500114   -0.0300
     21 C21       -12.5216    0.6372   62.3129 C.2     1  ZINC000854500114   -0.1200
     22 C22       -12.5345    0.9599   63.6726 C.2     1  ZINC000854500114    0.0200
     23 Br23      -14.0422    0.9163   64.8132 Br      1  ZINC000854500114    0.0400
     24 N24       -11.3173    1.2975   64.0163 N.2     1  ZINC000854500114   -0.2400
     25 N25       -10.5190    1.2190   63.0132 N.pl3   1  ZINC000854500114   -0.3700
     26 H26        -9.4819   -1.4896   54.6089 H       1  ZINC000854500114    0.4000
     27 H27       -11.8935   -0.2947   53.5008 H       1  ZINC000854500114    0.0900
     28 H28       -11.3610   -1.4906   51.5637 H       1  ZINC000854500114    0.0800
     29 H29        -9.7563   -1.6299   52.3483 H       1  ZINC000854500114    0.0700
     30 H30       -11.0661   -3.8792   51.6450 H       1  ZINC000854500114    0.0700
     31 H31       -10.2641   -3.8085   53.2488 H       1  ZINC000854500114    0.0700
     32 H32       -13.2208   -3.3397   52.5751 H       1  ZINC000854500114    0.0700
     33 H33       -12.5261   -4.3838   53.8547 H       1  ZINC000854500114    0.0700
     34 H34       -12.1118   -2.5791   55.2748 H       1  ZINC000854500114    0.0700
     35 H35       -13.4059   -1.7984   54.3224 H       1  ZINC000854500114    0.0800
     36 H36        -9.5002    1.3118   58.2733 H       1  ZINC000854500114    0.1000
     37 H37       -11.0143    0.4061   58.0385 H       1  ZINC000854500114    0.0700
     38 H38       -10.9730   -2.1007   58.3075 H       1  ZINC000854500114    0.0800
     39 H39        -9.4153   -2.3303   57.4763 H       1  ZINC000854500114    0.0900
     40 H40        -9.8123   -4.1588   59.0913 H       1  ZINC000854500114    0.0800
     41 H41        -8.4216   -3.1705   59.5976 H       1  ZINC000854500114    0.0700
     42 H42       -11.2746   -2.8720   60.6416 H       1  ZINC000854500114    0.0700
     43 H43        -9.9365   -3.6633   61.5096 H       1  ZINC000854500114    0.0800
     44 H44       -10.2929   -1.2688   62.2109 H       1  ZINC000854500114    0.0800
     45 H45        -8.6661   -1.5677   61.5466 H       1  ZINC000854500114    0.0800
     46 H46       -13.3570    0.3172   61.7079 H       1  ZINC000854500114    0.1700
     47 H47        -9.5708    1.4218   63.0363 H       1  ZINC000854500114    0.4500
@<TRIPOS>BOND
     1     1     2    2
     2     2     3   am
     3     2     9    1
     4     3     4    1
     5     3    26    1
     6     4     8    1
     7     4     5    1
     8     4    27    1
     9     5     6    1
    10     5    28    1
    11     5    29    1
    12     6     7    1
    13     6    30    1
    14     6    31    1
    15     7     8    1
    16     7    32    1
    17     7    33    1
    18     8    34    1
    19     8    35    1
    20     9    10    1
    21    10    11    1
    22    10    36    1
    23    10    37    1
    24    11    12    1
    25    11    17    1
    26    11    13    1
    27    13    14    1
    28    13    38    1
    29    13    39    1
    30    14    15    1
    31    14    40    1
    32    14    41    1
    33    15    16    1
    34    15    42    1
    35    15    43    1
    36    16    17    1
    37    16    44    1
    38    16    45    1
    39    17    18   am
    40    18    19    2
    41    18    20    1
    42    20    25    1
    43    20    21    2
    44    21    22    1
    45    21    46    1
    46    22    23    1
    47    22    24    2
    48    24    25    1
    49    25    47    1
@<TRIPOS>SUBSTRUCTURE
     1 ZINC000854500114        1 TEMP              0 ****  ****    0 ROOT


##########                                Name:    ZINC001060733018
##########                DOCK_Rotatable_Bonds:                   7
##########                         Heavy_Atoms:                  24
##########                    Molecular_Weight:             342.429
##########                DOCK_Rotatable_Bonds:                   7
##########                       Formal_Charge:           0.0200001
##########                     HBond_Acceptors:                   6
##########                        HBond_Donors:                   2
##########                         Heavy_Atoms:                  24
##########                          Grid_Score:          -30.056597
##########                     Grid_vdw_energy:          -28.750437
##########                      Grid_es_energy:           -1.306159
##########           Internal_energy_repulsive:            7.943645

@<TRIPOS>MOLECULE
ZINC001060733018
 52 54 1 0 0
SMALL
USER_CHARGES


@<TRIPOS>ATOM
      1 O1         -9.9640    2.5674   63.9258 O.2     1  ZINC001060733018   -0.5000
      2 C2        -10.2283    1.7314   64.7638 C.2     1  ZINC001060733018    0.4700
      3 N3         -9.7810    0.4681   64.6199 N.am    1  ZINC001060733018   -0.7100
      4 C4         -8.9791    0.1038   63.4492 C.3     1  ZINC001060733018    0.1200
      5 C5         -9.8773   -0.5559   62.4010 C.3     1  ZINC001060733018   -0.1000
      6 H6        -10.7379   -1.0090   62.8933 H       1  ZINC001060733018    0.0800
      7 C7        -10.3579    0.5003   61.4037 C.3     1  ZINC001060733018   -0.1100
      8 C8        -11.2562   -0.1595   60.3555 C.3     1  ZINC001060733018   -0.1300
      9 C9        -10.4660   -1.2394   59.6136 C.3     1  ZINC001060733018    0.1400
     10 H10        -9.6054   -0.7862   59.1213 H       1  ZINC001060733018    0.0900
     11 N11       -11.3261   -1.8710   58.6099 N.am    1  ZINC001060733018   -0.7300
     12 C12       -11.3721   -1.3789   57.3560 C.2     1  ZINC001060733018    0.5200
     13 O13       -10.7004   -0.4140   57.0582 O.2     1  ZINC001060733018   -0.5400
     14 C14       -12.2582   -2.0276   56.3241 C.3     1  ZINC001060733018   -0.1000
     15 H15       -12.7504   -1.2566   55.7313 H       1  ZINC001060733018    0.1000
     16 C16       -13.3142   -2.8842   57.0245 C.3     1  ZINC001060733018   -0.1100
     17 C17       -14.2635   -3.4873   55.9882 C.3     1  ZINC001060733018   -0.1200
     18 C18       -13.4796   -4.4198   55.0598 C.3     1  ZINC001060733018   -0.0800
     19 C19       -12.3334   -3.6319   54.4186 C.3     1  ZINC001060733018   -0.1300
     20 C20       -12.6023   -2.9535   53.0756 C.3     1  ZINC001060733018   -0.1700
     21 C21       -11.7099   -4.1948   53.1421 C.3     1  ZINC001060733018   -0.1700
     22 C22       -11.4097   -2.9133   55.4065 C.3     1  ZINC001060733018   -0.0600
     23 C23        -9.9854   -2.2955   60.6109 C.3     1  ZINC001060733018   -0.1200
     24 C24        -9.0872   -1.6357   61.6591 C.3     1  ZINC001060733018   -0.1100
     25 C25       -11.0516    2.1065   65.9689 C.3     1  ZINC001060733018    0.2600
     26 F26       -10.8332    3.4524   66.2823 F       1  ZINC001060733018   -0.1700
     27 F27       -12.4076    1.9073   65.6878 F       1  ZINC001060733018   -0.1900
     28 H28        -9.9901   -0.1998   65.2915 H       1  ZINC001060733018    0.4100
     29 H29        -8.5252    1.0002   63.0265 H       1  ZINC001060733018    0.0800
     30 H30        -8.1964   -0.5936   63.7478 H       1  ZINC001060733018    0.0800
     31 H31       -10.9209    1.2695   61.9322 H       1  ZINC001060733018    0.0700
     32 H32        -9.4974    0.9533   60.9115 H       1  ZINC001060733018    0.0700
     33 H33       -11.5985    0.5929   59.6450 H       1  ZINC001060733018    0.0700
     34 H34       -12.1166   -0.6125   60.8478 H       1  ZINC001060733018    0.0600
     35 H35       -11.8624   -2.6435   58.8477 H       1  ZINC001060733018    0.4000
     36 H36       -12.8228   -3.6860   57.5757 H       1  ZINC001060733018    0.0700
     37 H37       -13.8826   -2.2637   57.7173 H       1  ZINC001060733018    0.0700
     38 H38       -15.0444   -4.0529   56.4966 H       1  ZINC001060733018    0.0700
     39 H39       -14.7170   -2.6879   55.4021 H       1  ZINC001060733018    0.0700
     40 H40       -13.0736   -5.2515   55.6355 H       1  ZINC001060733018    0.0700
     41 H41       -14.1408   -4.8007   54.2816 H       1  ZINC001060733018    0.0700
     42 H42       -13.5957   -3.0703   52.6426 H       1  ZINC001060733018    0.0900
     43 H43       -12.1180   -1.9947   52.8901 H       1  ZINC001060733018    0.0900
     44 H44       -10.6385   -4.0527   53.0002 H       1  ZINC001060733018    0.0900
     45 H45       -12.1160   -5.1285   52.7529 H       1  ZINC001060733018    0.0900
     46 H46       -10.6986   -2.2954   54.8581 H       1  ZINC001060733018    0.0700
     47 H47       -10.8717   -3.6488   56.0045 H       1  ZINC001060733018    0.0800
     48 H48        -9.4226   -3.0648   60.0823 H       1  ZINC001060733018    0.0700
     49 H49       -10.8460   -2.7486   61.1031 H       1  ZINC001060733018    0.0700
     50 H50        -8.2266   -1.1827   61.1669 H       1  ZINC001060733018    0.0700
     51 H51        -8.7448   -2.3881   62.3696 H       1  ZINC001060733018    0.0700
     52 H52       -10.7609    1.4845   66.8155 H       1  ZINC001060733018    0.1400
@<TRIPOS>BOND
     1     1     2    2
     2     2     3   am
     3     2    25    1
     4     3     4    1
     5     3    28    1
     6     4     5    1
     7     4    29    1
     8     4    30    1
     9     5     6    1
    10     5    24    1
    11     5     7    1
    12     7     8    1
    13     7    31    1
    14     7    32    1
    15     8     9    1
    16     8    33    1
    17     8    34    1
    18     9    10    1
    19     9    11    1
    20     9    23    1
    21    11    12   am
    22    11    35    1
    23    12    13    2
    24    12    14    1
    25    14    15    1
    26    14    22    1
    27    14    16    1
    28    16    17    1
    29    16    36    1
    30    16    37    1
    31    17    18    1
    32    17    38    1
    33    17    39    1
    34    18    19    1
    35    18    40    1
    36    18    41    1
    37    19    21    1
    38    19    20    1
    39    19    22    1
    40    20    21    1
    41    20    42    1
    42    20    43    1
    43    21    44    1
    44    21    45    1
    45    22    46    1
    46    22    47    1
    47    23    24    1
    48    23    48    1
    49    23    49    1
    50    24    50    1
    51    24    51    1
    52    25    26    1
    53    25    27    1
    54    25    52    1
@<TRIPOS>SUBSTRUCTURE
     1 ZINC001060733018        1 TEMP              0 ****  ****    0 ROOT


##########                                Name:    ZINC000469435497
##########                DOCK_Rotatable_Bonds:                   6
##########                         Heavy_Atoms:                  27
##########                    Molecular_Weight:             364.444
##########                DOCK_Rotatable_Bonds:                   6
##########                       Formal_Charge:           0.0300001
##########                     HBond_Acceptors:                   5
##########                        HBond_Donors:                   2
##########                         Heavy_Atoms:                  27
##########                          Grid_Score:          -30.046253
##########                     Grid_vdw_energy:          -28.771721
##########                      Grid_es_energy:           -1.274533
##########           Internal_energy_repulsive:            3.896928

@<TRIPOS>MOLECULE
ZINC000469435497
 51 54 1 0 0
SMALL
USER_CHARGES


@<TRIPOS>ATOM
      1 C1         -9.8790    1.6118   64.9225 C.3     1  ZINC000469435497   -0.1600
      2 C2        -10.9205    2.3977   64.1235 C.3     1  ZINC000469435497    0.1000
      3 C3        -10.6287    3.8983   64.1852 C.3     1  ZINC000469435497   -0.1400
      4 C4        -10.9727    1.9053   62.6579 C.3     1  ZINC000469435497   -0.1000
      5 C5        -12.0734    0.8636   62.7159 C.ar    1  ZINC000469435497   -0.1500
      6 C6        -12.4421   -0.1388   61.8476 C.ar    1  ZINC000469435497   -0.0700
      7 C7        -13.5096   -0.9709   62.1624 C.ar    1  ZINC000469435497    0.1100
      8 N8        -13.8895   -1.9932   61.2828 N.am    1  ZINC000469435497   -0.6600
      9 C9        -14.6430   -1.7072   60.2026 C.2     1  ZINC000469435497    0.5100
     10 O10       -14.9923   -0.5650   59.9920 O.2     1  ZINC000469435497   -0.5200
     11 C11       -15.0516   -2.8068   59.2564 C.3     1  ZINC000469435497    0.1000
     12 N12       -14.2822   -2.6937   58.0149 N.am    1  ZINC000469435497   -0.7200
     13 C13       -14.1264   -3.7697   57.2184 C.2     1  ZINC000469435497    0.5700
     14 O14       -14.6231   -4.8342   57.5308 O.2     1  ZINC000469435497   -0.5300
     15 C15       -13.3513   -3.6551   55.9645 C.ar    1  ZINC000469435497   -0.1400
     16 C16       -13.3480   -4.7034   55.0435 C.ar    1  ZINC000469435497   -0.0800
     17 C17       -12.6225   -4.5879   53.8770 C.ar    1  ZINC000469435497   -0.1100
     18 C18       -11.8962   -3.4369   53.6136 C.ar    1  ZINC000469435497   -0.0700
     19 C19       -11.0333   -3.0763   52.4226 C.3     1  ZINC000469435497   -0.0900
     20 C20       -10.8631   -1.5441   52.4959 C.3     1  ZINC000469435497   -0.1200
     21 C21       -11.0326   -1.2632   54.0040 C.3     1  ZINC000469435497   -0.0800
     22 C22       -11.8955   -2.3936   54.5232 C.ar    1  ZINC000469435497   -0.1100
     23 C23       -12.6239   -2.4964   55.6930 C.ar    1  ZINC000469435497   -0.0400
     24 C24       -14.1974   -0.7835   63.3537 C.ar    1  ZINC000469435497   -0.1000
     25 C25       -13.8273    0.2244   64.2192 C.ar    1  ZINC000469435497   -0.1200
     26 C26       -12.7603    1.0629   63.9070 C.ar    1  ZINC000469435497    0.1000
     27 O27       -12.2472    2.1167   64.6012 O.3     1  ZINC000469435497   -0.3000
     28 H28       -10.0868    0.5449   64.8399 H       1  ZINC000469435497    0.0600
     29 H29        -8.8849    1.8199   64.5271 H       1  ZINC000469435497    0.0800
     30 H30        -9.9233    1.9105   65.9699 H       1  ZINC000469435497    0.0700
     31 H31        -9.6468    4.0955   63.7548 H       1  ZINC000469435497    0.0800
     32 H32       -11.3881    4.4397   63.6210 H       1  ZINC000469435497    0.0700
     33 H33       -10.6432    4.2288   65.2237 H       1  ZINC000469435497    0.0700
     34 H34       -11.2410    2.7183   61.9832 H       1  ZINC000469435497    0.0900
     35 H35       -10.0247    1.4543   62.3645 H       1  ZINC000469435497    0.0900
     36 H36       -11.9027   -0.2781   60.9224 H       1  ZINC000469435497    0.1400
     37 H37       -13.6100   -2.9067   61.4512 H       1  ZINC000469435497    0.4200
     38 H38       -14.8562   -3.7746   59.7181 H       1  ZINC000469435497    0.1100
     39 H39       -16.1150   -2.7182   59.0341 H       1  ZINC000469435497    0.1100
     40 H40       -13.8847   -1.8445   57.7662 H       1  ZINC000469435497    0.4100
     41 H41       -13.9118   -5.6025   55.2438 H       1  ZINC000469435497    0.1300
     42 H42       -12.6195   -5.3993   53.1643 H       1  ZINC000469435497    0.1300
     43 H43       -10.0635   -3.5685   52.4954 H       1  ZINC000469435497    0.0900
     44 H44       -11.5323   -3.3574   51.4951 H       1  ZINC000469435497    0.0800
     45 H45        -9.8709   -1.2479   52.1557 H       1  ZINC000469435497    0.0800
     46 H46       -11.6383   -1.0403   51.9185 H       1  ZINC000469435497    0.0700
     47 H47       -10.0626   -1.2688   54.5010 H       1  ZINC000469435497    0.0800
     48 H48       -11.5311   -0.3060   54.1566 H       1  ZINC000469435497    0.0800
     49 H49       -12.6273   -1.6797   56.3997 H       1  ZINC000469435497    0.1400
     50 H50       -15.0259   -1.4297   63.6036 H       1  ZINC000469435497    0.1400
     51 H51       -14.3676    0.3640   65.1439 H       1  ZINC000469435497    0.1300
@<TRIPOS>BOND
     1     1     2    1
     2     1    28    1
     3     1    29    1
     4     1    30    1
     5     2    27    1
     6     2     3    1
     7     2     4    1
     8     3    31    1
     9     3    32    1
    10     3    33    1
    11     4     5    1
    12     4    34    1
    13     4    35    1
    14     5    26   ar
    15     5     6   ar
    16     6     7   ar
    17     6    36    1
    18     7     8    1
    19     7    24   ar
    20     8     9   am
    21     8    37    1
    22     9    10    2
    23     9    11    1
    24    11    12    1
    25    11    38    1
    26    11    39    1
    27    12    13   am
    28    12    40    1
    29    13    14    2
    30    13    15    1
    31    15    23   ar
    32    15    16   ar
    33    16    17   ar
    34    16    41    1
    35    17    18   ar
    36    17    42    1
    37    18    22   ar
    38    18    19    1
    39    19    20    1
    40    19    43    1
    41    19    44    1
    42    20    21    1
    43    20    45    1
    44    20    46    1
    45    21    22    1
    46    21    47    1
    47    21    48    1
    48    22    23   ar
    49    23    49    1
    50    24    25   ar
    51    24    50    1
    52    25    26   ar
    53    25    51    1
    54    26    27    1
@<TRIPOS>SUBSTRUCTURE
     1 ZINC000469435497        1 TEMP              0 ****  ****    0 ROOT


##########                                Name:    ZINC001356153960
##########                DOCK_Rotatable_Bonds:                   8
##########                         Heavy_Atoms:                  24
##########                    Molecular_Weight:             334.366
##########                DOCK_Rotatable_Bonds:                   8
##########                       Formal_Charge:           0.0100003
##########                     HBond_Acceptors:                   6
##########                        HBond_Donors:                   1
##########                         Heavy_Atoms:                  24
##########                          Grid_Score:          -30.014668
##########                     Grid_vdw_energy:          -28.873711
##########                      Grid_es_energy:           -1.140957
##########           Internal_energy_repulsive:           16.832430

@<TRIPOS>MOLECULE
ZINC001356153960
 44 46 1 0 0
SMALL
USER_CHARGES


@<TRIPOS>ATOM
      1 O1         -9.6051   -1.1475   58.9117 O.2     1  ZINC001356153960   -0.5200
      2 C2        -10.1255   -2.1416   59.3737 C.2     1  ZINC001356153960    0.5100
      3 N3         -9.9028   -2.4838   60.6582 N.am    1  ZINC001356153960   -0.7000
      4 C4         -9.0373   -1.6522   61.4982 C.3     1  ZINC001356153960    0.1300
      5 C5         -9.8909   -0.6408   62.2659 C.3     1  ZINC001356153960   -0.0800
      6 H6        -10.8478   -1.0841   62.5411 H       1  ZINC001356153960    0.0900
      7 C7         -9.1588   -0.1619   63.4980 C.2     1  ZINC001356153960   -0.1700
      8 C8         -9.2540    1.1334   63.6275 C.2     1  ZINC001356153960   -0.1600
      9 C9        -10.0655    1.7343   62.5033 C.3     1  ZINC001356153960   -0.1000
     10 C10       -10.1114    0.6325   61.4168 C.3     1  ZINC001356153960   -0.1200
     11 C11       -11.0084   -2.9899   58.5169 C.2     1  ZINC001356153960    0.5100
     12 O12       -10.5315   -3.8924   57.8606 O.2     1  ZINC001356153960   -0.5100
     13 N13       -12.3344   -2.7526   58.4730 N.am    1  ZINC001356153960   -0.5500
     14 C14       -13.2000   -3.5841   57.6330 C.3     1  ZINC001356153960    0.1300
     15 C15       -12.8306   -3.3910   56.1849 C.ar    1  ZINC001356153960   -0.1600
     16 C16       -12.4857   -2.1357   55.7215 C.ar    1  ZINC001356153960   -0.0300
     17 C17       -12.1411   -1.9581   54.3947 C.ar    1  ZINC001356153960   -0.1700
     18 C18       -12.1522   -3.0360   53.5258 C.ar    1  ZINC001356153960    0.1400
     19 F19       -11.8203   -2.8613   52.2279 F       1  ZINC001356153960   -0.1300
     20 C20       -12.5031   -4.2931   53.9877 C.ar    1  ZINC001356153960   -0.2000
     21 C21       -12.8423   -4.4708   55.3176 C.ar    1  ZINC001356153960    0.1500
     22 F22       -13.1853   -5.6968   55.7695 F       1  ZINC001356153960   -0.1200
     23 C23       -12.9103   -1.6632   59.2654 C.3     1  ZINC001356153960    0.0700
     24 C24       -13.1144   -1.9095   60.7617 C.3     1  ZINC001356153960   -0.1900
     25 C25       -14.3215   -1.8635   59.8214 C.3     1  ZINC001356153960   -0.1800
     26 H26       -10.3155   -3.2806   61.0264 H       1  ZINC001356153960    0.4100
     27 H27        -8.5002   -2.2850   62.2049 H       1  ZINC001356153960    0.0800
     28 H28        -8.3222   -1.1214   60.8697 H       1  ZINC001356153960    0.0800
     29 H29        -8.6264   -0.8067   64.1815 H       1  ZINC001356153960    0.1200
     30 H30        -8.8108    1.7012   64.4321 H       1  ZINC001356153960    0.1300
     31 H31       -11.0731    1.9697   62.8461 H       1  ZINC001356153960    0.0800
     32 H32        -9.5770    2.6299   62.1191 H       1  ZINC001356153960    0.0700
     33 H33        -9.3075    0.7639   60.6925 H       1  ZINC001356153960    0.0800
     34 H34       -11.0821    0.6092   60.9214 H       1  ZINC001356153960    0.0800
     35 H35       -13.0715   -4.6319   57.9042 H       1  ZINC001356153960    0.0900
     36 H36       -14.2399   -3.2945   57.7844 H       1  ZINC001356153960    0.1400
     37 H37       -12.4814   -1.2934   56.3974 H       1  ZINC001356153960    0.1600
     38 H38       -11.8679   -0.9773   54.0345 H       1  ZINC001356153960    0.1400
     39 H39       -12.5122   -5.1344   53.3106 H       1  ZINC001356153960    0.1500
     40 H40       -12.6299   -0.6567   58.9547 H       1  ZINC001356153960    0.1400
     41 H41       -12.8203   -2.8820   61.1564 H       1  ZINC001356153960    0.1400
     42 H42       -12.9687   -1.0649   61.4351 H       1  ZINC001356153960    0.0900
     43 H43       -14.9694   -0.9887   59.8768 H       1  ZINC001356153960    0.1000
     44 H44       -14.8215   -2.8059   59.5976 H       1  ZINC001356153960    0.0900
@<TRIPOS>BOND
     1     1     2    2
     2     2     3   am
     3     2    11    1
     4     3     4    1
     5     3    26    1
     6     4     5    1
     7     4    27    1
     8     4    28    1
     9     5     6    1
    10     5    10    1
    11     5     7    1
    12     7     8    2
    13     7    29    1
    14     8     9    1
    15     8    30    1
    16     9    10    1
    17     9    31    1
    18     9    32    1
    19    10    33    1
    20    10    34    1
    21    11    12    2
    22    11    13   am
    23    13    14    1
    24    13    23    1
    25    14    15    1
    26    14    35    1
    27    14    36    1
    28    15    21   ar
    29    15    16   ar
    30    16    17   ar
    31    16    37    1
    32    17    18   ar
    33    17    38    1
    34    18    19    1
    35    18    20   ar
    36    20    21   ar
    37    20    39    1
    38    21    22    1
    39    23    25    1
    40    23    24    1
    41    23    40    1
    42    24    25    1
    43    24    41    1
    44    24    42    1
    45    25    43    1
    46    25    44    1
@<TRIPOS>SUBSTRUCTURE
     1 ZINC001356153960        1 TEMP              0 ****  ****    0 ROOT


##########                                Name:    ZINC000426607143
##########                DOCK_Rotatable_Bonds:                   3
##########                         Heavy_Atoms:                  25
##########                    Molecular_Weight:             419.302
##########                DOCK_Rotatable_Bonds:                   3
##########                       Formal_Charge:         1.49012e-07
##########                     HBond_Acceptors:                   7
##########                        HBond_Donors:                   0
##########                         Heavy_Atoms:                  25
##########                          Grid_Score:          -29.999531
##########                     Grid_vdw_energy:          -29.464474
##########                      Grid_es_energy:           -0.535057
##########           Internal_energy_repulsive:           14.021292

@<TRIPOS>MOLECULE
ZINC000426607143
 40 43 1 0 0
SMALL
USER_CHARGES


@<TRIPOS>ATOM
      1 C1         -8.0983    3.6537   52.9649 C.3     1  ZINC000426607143   -0.0900
      2 C2         -7.5121    2.5269   52.1537 C.2     1  ZINC000426607143    0.1600
      3 N3         -6.5998    2.7392   51.2555 N.2     1  ZINC000426607143   -0.4600
      4 S4         -6.2019    1.2411   50.5688 S.3     1  ZINC000426607143    0.2900
      5 C5         -7.2949    0.3144   51.5206 C.2     1  ZINC000426607143   -0.1300
      6 C6         -7.5125   -1.1760   51.4686 C.3     1  ZINC000426607143   -0.0800
      7 C7         -7.9183    1.2117   52.3359 C.2     1  ZINC000426607143   -0.1200
      8 C8         -8.9496    0.8178   53.3264 C.2     1  ZINC000426607143    0.2500
      9 N9         -9.8343   -0.1361   53.1891 N.2     1  ZINC000426607143   -0.3700
     10 O10       -10.5317   -0.2032   54.1792 O.3     1  ZINC000426607143    0.0900
     11 C11       -10.1550    0.7210   55.0683 C.2     1  ZINC000426607143    0.2000
     12 C12       -10.7694    0.9628   56.4229 C.3     1  ZINC000426607143   -0.0300
     13 H13       -10.9970    2.0205   56.5543 H       1  ZINC000426607143    0.1600
     14 C14       -12.0465    0.1086   56.5981 C.3     1  ZINC000426607143   -0.1200
     15 C15       -11.9660   -0.2755   58.0922 C.3     1  ZINC000426607143    0.1000
     16 N16       -10.5402   -0.2171   58.4353 N.am    1  ZINC000426607143   -0.5800
     17 C17        -9.9765   -0.8083   59.5718 C.ar    1  ZINC000426607143    0.1700
     18 C18        -9.6761   -0.0325   60.6830 C.ar    1  ZINC000426607143   -0.1000
     19 C19        -9.1197   -0.6190   61.8034 C.ar    1  ZINC000426607143   -0.1000
     20 C20        -8.8615   -1.9771   61.8189 C.ar    1  ZINC000426607143   -0.1000
     21 C21        -9.1594   -2.7534   60.7138 C.ar    1  ZINC000426607143   -0.0900
     22 C22        -9.7216   -2.1743   59.5925 C.ar    1  ZINC000426607143   -0.0800
     23 Br23      -10.1287   -3.2362   58.0816 Br      1  ZINC000426607143   -0.0400
     24 C24        -9.8437    0.4803   57.5179 C.2     1  ZINC000426607143    0.5300
     25 O25        -8.6493    0.6870   57.5621 O.2     1  ZINC000426607143   -0.4900
     26 N26        -9.1480    1.3737   54.5434 N.2     1  ZINC000426607143   -0.4600
     27 H27        -7.5062    3.7969   53.8688 H       1  ZINC000426607143    0.0900
     28 H28        -8.0878    4.5700   52.3748 H       1  ZINC000426607143    0.0800
     29 H29        -9.1248    3.4090   53.2380 H       1  ZINC000426607143    0.1100
     30 H30        -6.8578   -1.6127   50.7146 H       1  ZINC000426607143    0.0800
     31 H31        -7.2859   -1.6103   52.4422 H       1  ZINC000426607143    0.0900
     32 H32        -8.5514   -1.3826   51.2114 H       1  ZINC000426607143    0.0900
     33 H33       -12.9407    0.6976   56.3944 H       1  ZINC000426607143    0.1100
     34 H34       -12.0125   -0.7780   55.9651 H       1  ZINC000426607143    0.1000
     35 H35       -12.5286    0.4370   58.6956 H       1  ZINC000426607143    0.0900
     36 H36       -12.3494   -1.2845   58.2435 H       1  ZINC000426607143    0.0900
     37 H37        -9.8767    1.0286   60.6717 H       1  ZINC000426607143    0.1400
     38 H38        -8.8859   -0.0157   62.6681 H       1  ZINC000426607143    0.1400
     39 H39        -8.4259   -2.4327   62.6959 H       1  ZINC000426607143    0.1400
     40 H40        -8.9565   -3.8141   60.7291 H       1  ZINC000426607143    0.1400
@<TRIPOS>BOND
     1     1     2    1
     2     1    27    1
     3     1    28    1
     4     1    29    1
     5     2     7    1
     6     2     3    2
     7     3     4    1
     8     4     5    1
     9     5     6    1
    10     5     7    2
    11     6    30    1
    12     6    31    1
    13     6    32    1
    14     7     8    1
    15     8    26    1
    16     8     9    2
    17     9    10    1
    18    10    11    1
    19    11    12    1
    20    11    26    2
    21    12    13    1
    22    12    24    1
    23    12    14    1
    24    14    15    1
    25    14    33    1
    26    14    34    1
    27    15    16    1
    28    15    35    1
    29    15    36    1
    30    16    17    1
    31    16    24   am
    32    17    22   ar
    33    17    18   ar
    34    18    19   ar
    35    18    37    1
    36    19    20   ar
    37    19    38    1
    38    20    21   ar
    39    20    39    1
    40    21    22   ar
    41    21    40    1
    42    22    23    1
    43    24    25    2
@<TRIPOS>SUBSTRUCTURE
     1 ZINC000426607143        1 TEMP              0 ****  ****    0 ROOT


##########                                Name:    ZINC000326056918
##########                DOCK_Rotatable_Bonds:                   6
##########                         Heavy_Atoms:                  24
##########                    Molecular_Weight:             408.326
##########                DOCK_Rotatable_Bonds:                   6
##########                       Formal_Charge:         -0.00999978
##########                     HBond_Acceptors:                   9
##########                        HBond_Donors:                   0
##########                         Heavy_Atoms:                  24
##########                          Grid_Score:          -29.994139
##########                     Grid_vdw_energy:          -29.568050
##########                      Grid_es_energy:           -0.426087
##########           Internal_energy_repulsive:           24.131762

@<TRIPOS>MOLECULE
ZINC000326056918
 39 40 1 0 0
SMALL
USER_CHARGES


@<TRIPOS>ATOM
      1 C1        -11.3496   -3.2369   53.0747 C.3     1  ZINC000326056918    0.0400
      2 O2        -10.4829   -2.2031   53.6116 O.3     1  ZINC000326056918   -0.3500
      3 C3        -11.0609   -1.2590   54.3826 C.2     1  ZINC000326056918    0.5000
      4 O4        -12.2259   -1.3728   54.7127 O.2     1  ZINC000326056918   -0.4300
      5 C5        -10.2857   -0.0974   54.8219 C.2     1  ZINC000326056918   -0.1600
      6 C6         -9.7613    0.0797   56.0723 C.2     1  ZINC000326056918   -0.6200
      7 S7         -9.9441   -1.0933   57.3745 S.o2    1  ZINC000326056918    2.6900
      8 O8        -10.3888   -2.2993   56.7687 O.2     1  ZINC000326056918   -0.9100
      9 O9         -8.7632   -1.0078   58.1603 O.2     1  ZINC000326056918   -0.9400
     10 N10       -11.1852   -0.5680   58.3368 N.am    1  ZINC000326056918   -0.9900
     11 C11       -11.8910    0.6732   58.0095 C.3     1  ZINC000326056918    0.0900
     12 C12       -11.5772   -1.3446   59.5156 C.3     1  ZINC000326056918    0.1500
     13 C13       -10.7344   -0.9293   60.6938 C.ar    1  ZINC000326056918   -0.0900
     14 C14       -10.9278    0.3072   61.2798 C.ar    1  ZINC000326056918   -0.0800
     15 C15       -10.1547    0.6892   62.3604 C.ar    1  ZINC000326056918   -0.1100
     16 C16        -9.1873   -0.1665   62.8559 C.ar    1  ZINC000326056918   -0.0200
     17 Cl17       -8.2170    0.3130   64.2132 Cl      1  ZINC000326056918   -0.0600
     18 C18        -8.9936   -1.4048   62.2700 C.ar    1  ZINC000326056918   -0.1100
     19 C19        -9.7709   -1.7884   61.1922 C.ar    1  ZINC000326056918   -0.0300
     20 Cl20       -9.5289   -3.3421   60.4566 Cl      1  ZINC000326056918   -0.0100
     21 C21        -9.0768    1.2630   56.2120 C.2     1  ZINC000326056918   -0.0400
     22 C22        -8.4154    1.6667   57.5044 C.3     1  ZINC000326056918   -0.1100
     23 C23        -9.0402    2.0306   55.1160 C.2     1  ZINC000326056918   -0.2600
     24 S24        -9.8734    1.2905   53.8242 S.3     1  ZINC000326056918    0.3100
     25 H25       -10.7598   -3.9301   52.4747 H       1  ZINC000326056918    0.1100
     26 H26       -11.8218   -3.7775   53.8950 H       1  ZINC000326056918    0.0700
     27 H27       -12.1177   -2.7795   52.4511 H       1  ZINC000326056918    0.0700
     28 H28       -12.6785    0.4633   57.2856 H       1  ZINC000326056918    0.0600
     29 H29       -12.3316    1.0903   58.9149 H       1  ZINC000326056918    0.0700
     30 H30       -11.1881    1.3896   57.5841 H       1  ZINC000326056918    0.0900
     31 H31       -12.6284   -1.1613   59.7383 H       1  ZINC000326056918    0.1100
     32 H32       -11.4275   -2.4060   59.3178 H       1  ZINC000326056918    0.0900
     33 H33       -11.6830    0.9757   60.8933 H       1  ZINC000326056918    0.1400
     34 H34       -10.3058    1.6559   62.8176 H       1  ZINC000326056918    0.1400
     35 H35        -8.2384   -2.0732   62.6565 H       1  ZINC000326056918    0.1500
     36 H36        -7.4325    1.2001   57.5708 H       1  ZINC000326056918    0.0900
     37 H37        -8.3056    2.7509   57.5332 H       1  ZINC000326056918    0.0700
     38 H38        -9.0296    1.3413   58.3441 H       1  ZINC000326056918    0.0900
     39 H39        -8.5457    2.9890   55.0564 H       1  ZINC000326056918    0.1800
@<TRIPOS>BOND
     1     1     2    1
     2     1    25    1
     3     1    26    1
     4     1    27    1
     5     2     3    1
     6     3     4    2
     7     3     5    1
     8     5    24    1
     9     5     6    2
    10     6     7    1
    11     6    21    1
    12     7     8    2
    13     7     9    2
    14     7    10   am
    15    10    11    1
    16    10    12    1
    17    11    28    1
    18    11    29    1
    19    11    30    1
    20    12    13    1
    21    12    31    1
    22    12    32    1
    23    13    19   ar
    24    13    14   ar
    25    14    15   ar
    26    14    33    1
    27    15    16   ar
    28    15    34    1
    29    16    17    1
    30    16    18   ar
    31    18    19   ar
    32    18    35    1
    33    19    20    1
    34    21    22    1
    35    21    23    2
    36    22    36    1
    37    22    37    1
    38    22    38    1
    39    23    24    1
    40    23    39    1
@<TRIPOS>SUBSTRUCTURE
     1 ZINC000326056918        1 TEMP              0 ****  ****    0 ROOT


##########                                Name:    ZINC000330515179
##########                DOCK_Rotatable_Bonds:                   4
##########                         Heavy_Atoms:                  21
##########                    Molecular_Weight:             378.287
##########                DOCK_Rotatable_Bonds:                   4
##########                       Formal_Charge:           0.0200002
##########                     HBond_Acceptors:                   6
##########                        HBond_Donors:                   0
##########                         Heavy_Atoms:                  21
##########                          Grid_Score:          -29.992905
##########                     Grid_vdw_energy:          -29.283985
##########                      Grid_es_energy:           -0.708919
##########           Internal_energy_repulsive:            6.836152

@<TRIPOS>MOLECULE
ZINC000330515179
 41 42 1 0 0
SMALL
USER_CHARGES


@<TRIPOS>ATOM
      1 C1        -14.4023   -5.1194   55.6623 C.3     1  ZINC000330515179    0.0300
      2 O2        -12.9951   -4.9055   55.5347 O.3     1  ZINC000330515179   -0.3800
      3 C3        -12.2914   -4.9110   56.7784 C.3     1  ZINC000330515179    0.0700
      4 C4        -12.5750   -3.6092   57.5305 C.3     1  ZINC000330515179    0.0800
      5 H5        -12.8742   -2.8370   56.8218 H       1  ZINC000330515179    0.0800
      6 C6        -11.3107   -3.1607   58.2726 C.3     1  ZINC000330515179    0.0900
      7 N7        -11.6580   -2.0186   59.1329 N.am    1  ZINC000330515179   -1.0000
      8 S8        -10.7675   -0.6228   59.0976 S.o2    1  ZINC000330515179    2.6900
      9 O9         -9.6507   -0.8807   58.2577 O.2     1  ZINC000330515179   -0.9400
     10 O10       -11.6877    0.4345   58.8643 O.2     1  ZINC000330515179   -0.9500
     11 C11       -10.1239   -0.3736   60.7187 C.ar    1  ZINC000330515179   -0.6700
     12 C12        -9.2763   -1.3120   61.2775 C.ar    1  ZINC000330515179   -0.0100
     13 C13        -8.7709   -1.1167   62.5491 C.ar    1  ZINC000330515179   -0.1100
     14 C14        -9.1132    0.0180   63.2624 C.ar    1  ZINC000330515179   -0.0400
     15 Br15       -8.4214    0.2861   65.0019 Br      1  ZINC000330515179   -0.0300
     16 C16        -9.9612    0.9566   62.7029 C.ar    1  ZINC000330515179   -0.1100
     17 C17       -10.4620    0.7631   61.4292 C.ar    1  ZINC000330515179   -0.0100
     18 C18       -12.8197   -2.1536   60.0260 C.3     1  ZINC000330515179    0.1000
     19 C19       -14.0104   -2.6511   59.1986 C.3     1  ZINC000330515179    0.1000
     20 C20       -15.1766   -2.9854   60.1309 C.3     1  ZINC000330515179   -0.1400
     21 C21       -14.4395   -1.5613   58.2140 C.3     1  ZINC000330515179   -0.1800
     22 O22       -13.6258   -3.8231   58.4759 O.3     1  ZINC000330515179   -0.3500
     23 H23       -14.8636   -5.1010   54.6749 H       1  ZINC000330515179    0.0900
     24 H24       -14.5818   -6.0879   56.1291 H       1  ZINC000330515179    0.0400
     25 H25       -14.8349   -4.3325   56.2802 H       1  ZINC000330515179    0.0400
     26 H26       -12.6228   -5.7576   57.3797 H       1  ZINC000330515179    0.0600
     27 H27       -11.2212   -4.9960   56.5899 H       1  ZINC000330515179    0.0700
     28 H28       -10.9340   -3.9803   58.8846 H       1  ZINC000330515179    0.0900
     29 H29       -10.5496   -2.8599   57.5525 H       1  ZINC000330515179    0.1000
     30 H30        -9.0095   -2.1980   60.7206 H       1  ZINC000330515179    0.1500
     31 H31        -8.1091   -1.8500   62.9857 H       1  ZINC000330515179    0.1500
     32 H32       -10.2287    1.8427   63.2594 H       1  ZINC000330515179    0.1500
     33 H33       -11.1241    1.4958   60.9923 H       1  ZINC000330515179    0.1500
     34 H34       -12.5950   -2.8717   60.8146 H       1  ZINC000330515179    0.0900
     35 H35       -13.0580   -1.1857   60.4672 H       1  ZINC000330515179    0.1000
     36 H36       -15.4669   -2.0923   60.6842 H       1  ZINC000330515179    0.0800
     37 H37       -16.0228   -3.3390   59.5419 H       1  ZINC000330515179    0.0700
     38 H38       -14.8707   -3.7630   60.8308 H       1  ZINC000330515179    0.0700
     39 H39       -13.6089   -1.3249   57.5490 H       1  ZINC000330515179    0.0600
     40 H40       -15.2861   -1.9158   57.6261 H       1  ZINC000330515179    0.0700
     41 H41       -14.7292   -0.6670   58.7656 H       1  ZINC000330515179    0.0700
@<TRIPOS>BOND
     1     1     2    1
     2     1    23    1
     3     1    24    1
     4     1    25    1
     5     2     3    1
     6     3     4    1
     7     3    26    1
     8     3    27    1
     9     4     5    1
    10     4    22    1
    11     4     6    1
    12     6     7    1
    13     6    28    1
    14     6    29    1
    15     7     8   am
    16     7    18    1
    17     8     9    2
    18     8    10    2
    19     8    11    1
    20    11    17   ar
    21    11    12   ar
    22    12    13   ar
    23    12    30    1
    24    13    14   ar
    25    13    31    1
    26    14    15    1
    27    14    16   ar
    28    16    17   ar
    29    16    32    1
    30    17    33    1
    31    18    19    1
    32    18    34    1
    33    18    35    1
    34    19    20    1
    35    19    21    1
    36    19    22    1
    37    20    36    1
    38    20    37    1
    39    20    38    1
    40    21    39    1
    41    21    40    1
    42    21    41    1
@<TRIPOS>SUBSTRUCTURE
     1 ZINC000330515179        1 TEMP              0 ****  ****    0 ROOT


##########                                Name:    ZINC000482962466
##########                DOCK_Rotatable_Bonds:                   2
##########                         Heavy_Atoms:                  25
##########                    Molecular_Weight:             404.303
##########                DOCK_Rotatable_Bonds:                   2
##########                       Formal_Charge:           0.0200002
##########                     HBond_Acceptors:                   4
##########                        HBond_Donors:                   0
##########                         Heavy_Atoms:                  25
##########                          Grid_Score:          -29.967825
##########                     Grid_vdw_energy:          -29.624073
##########                      Grid_es_energy:           -0.343752
##########           Internal_energy_repulsive:            6.005846

@<TRIPOS>MOLECULE
ZINC000482962466
 47 50 1 0 0
SMALL
USER_CHARGES


@<TRIPOS>ATOM
      1 C1        -14.2827   -2.8522   60.1545 C.3     1  ZINC000482962466   -0.1400
      2 C2        -13.1567   -2.1929   59.3555 C.3     1  ZINC000482962466    0.0700
      3 H3        -12.9854   -1.1845   59.7320 H       1  ZINC000482962466    0.0700
      4 C4        -13.5495   -2.1271   57.8753 C.3     1  ZINC000482962466    0.0800
      5 N5        -12.3844   -1.6644   57.1049 N.am    1  ZINC000482962466   -0.6100
      6 C6        -12.4914   -0.6449   56.2299 C.2     1  ZINC000482962466    0.5600
      7 O7        -13.5624   -0.0931   56.0676 O.2     1  ZINC000482962466   -0.5200
      8 C8        -11.3071   -0.1980   55.4678 C.ar    1  ZINC000482962466   -0.1100
      9 C9        -10.5760    0.9202   55.9068 C.ar    1  ZINC000482962466   -0.0700
     10 C10        -9.4845    1.3500   55.2238 C.ar    1  ZINC000482962466   -0.1000
     11 C11        -9.0710    0.6750   54.0608 C.ar    1  ZINC000482962466   -0.0400
     12 C12        -7.9448    1.1011   53.3377 C.ar    1  ZINC000482962466   -0.0700
     13 C13        -7.5682    0.4272   52.2153 C.ar    1  ZINC000482962466   -0.0800
     14 Br14       -6.0507    1.0056   51.2467 Br      1  ZINC000482962466   -0.0400
     15 C15        -8.2850   -0.6834   51.7700 C.ar    1  ZINC000482962466   -0.1000
     16 C16        -9.3811   -1.1249   52.4443 C.ar    1  ZINC000482962466   -0.0900
     17 C17        -9.7998   -0.4545   53.6080 C.ar    1  ZINC000482962466   -0.0500
     18 C18       -10.9219   -0.8872   54.3295 C.ar    1  ZINC000482962466   -0.0700
     19 C19       -11.0987   -2.3482   57.3182 C.3     1  ZINC000482962466    0.0700
     20 C20       -10.8264   -2.4057   58.8245 C.3     1  ZINC000482962466    0.0800
     21 C21        -9.5963   -3.2779   59.0879 C.3     1  ZINC000482962466   -0.1100
     22 C22        -9.2856   -3.2634   60.5880 C.3     1  ZINC000482962466   -0.1500
     23 C23        -9.0837   -1.8163   61.0451 C.3     1  ZINC000482962466    0.0600
     24 O24       -10.2542   -1.0542   60.7435 O.3     1  ZINC000482962466   -0.3700
     25 C25       -10.5670   -0.9924   59.3504 C.3     1  ZINC000482962466    0.0400
     26 O26       -11.9599   -2.9633   59.4920 O.3     1  ZINC000482962466   -0.3500
     27 H27       -14.0018   -2.9004   61.2065 H       1  ZINC000482962466    0.0700
     28 H28       -15.1952   -2.2655   60.0485 H       1  ZINC000482962466    0.0800
     29 H29       -14.4533   -3.8606   59.7775 H       1  ZINC000482962466    0.0700
     30 H30       -13.8478   -3.1172   57.5304 H       1  ZINC000482962466    0.0800
     31 H31       -14.3762   -1.4285   57.7457 H       1  ZINC000482962466    0.1000
     32 H32       -10.8873    1.4440   56.7985 H       1  ZINC000482962466    0.1400
     33 H33        -8.9334    2.2107   55.5733 H       1  ZINC000482962466    0.1400
     34 H34        -7.3799    1.9597   53.6699 H       1  ZINC000482962466    0.1400
     35 H35        -7.9653   -1.2001   50.8771 H       1  ZINC000482962466    0.1400
     36 H36        -9.9271   -1.9858   52.0878 H       1  ZINC000482962466    0.1400
     37 H37       -11.4836   -1.7480   53.9979 H       1  ZINC000482962466    0.1400
     38 H38       -11.1496   -3.3598   56.9153 H       1  ZINC000482962466    0.0900
     39 H39       -10.3016   -1.7945   56.8218 H       1  ZINC000482962466    0.1000
     40 H40        -9.7985   -4.2998   58.7673 H       1  ZINC000482962466    0.0800
     41 H41        -8.7441   -2.8827   58.5352 H       1  ZINC000482962466    0.0800
     42 H42       -10.1171   -3.7060   61.1365 H       1  ZINC000482962466    0.0800
     43 H43        -8.3773   -3.8353   60.7775 H       1  ZINC000482962466    0.0800
     44 H44        -8.9041   -1.7965   62.1200 H       1  ZINC000482962466    0.1000
     45 H45        -8.2269   -1.3873   60.5256 H       1  ZINC000482962466    0.0500
     46 H46        -9.7302   -0.5511   58.8090 H       1  ZINC000482962466    0.0600
     47 H47       -11.4576   -0.3811   59.2044 H       1  ZINC000482962466    0.1000
@<TRIPOS>BOND
     1     1     2    1
     2     1    27    1
     3     1    28    1
     4     1    29    1
     5     2     3    1
     6     2    26    1
     7     2     4    1
     8     4     5    1
     9     4    30    1
    10     4    31    1
    11     5     6   am
    12     5    19    1
    13     6     7    2
    14     6     8    1
    15     8    18   ar
    16     8     9   ar
    17     9    10   ar
    18     9    32    1
    19    10    11   ar
    20    10    33    1
    21    11    17   ar
    22    11    12   ar
    23    12    13   ar
    24    12    34    1
    25    13    14    1
    26    13    15   ar
    27    15    16   ar
    28    15    35    1
    29    16    17   ar
    30    16    36    1
    31    17    18   ar
    32    18    37    1
    33    19    20    1
    34    19    38    1
    35    19    39    1
    36    20    25    1
    37    20    21    1
    38    20    26    1
    39    21    22    1
    40    21    40    1
    41    21    41    1
    42    22    23    1
    43    22    42    1
    44    22    43    1
    45    23    24    1
    46    23    44    1
    47    23    45    1
    48    24    25    1
    49    25    46    1
    50    25    47    1
@<TRIPOS>SUBSTRUCTURE
     1 ZINC000482962466        1 TEMP              0 ****  ****    0 ROOT


##########                                Name:    ZINC000444205493
##########                DOCK_Rotatable_Bonds:                   4
##########                         Heavy_Atoms:                  24
##########                    Molecular_Weight:             415.351
##########                DOCK_Rotatable_Bonds:                   4
##########                       Formal_Charge:         -0.00999995
##########                     HBond_Acceptors:                   6
##########                        HBond_Donors:                   1
##########                         Heavy_Atoms:                  24
##########                          Grid_Score:          -29.878662
##########                     Grid_vdw_energy:          -29.296530
##########                      Grid_es_energy:           -0.582133
##########           Internal_energy_repulsive:            8.480418

@<TRIPOS>MOLECULE
ZINC000444205493
 47 49 1 0 0
SMALL
USER_CHARGES


@<TRIPOS>ATOM
      1 C1        -15.0638   -1.7083   49.8011 C.3     1  ZINC000444205493   -0.1700
      2 C2        -14.7132   -2.2859   51.1482 C.2     1  ZINC000444205493    0.5100
      3 O3        -15.3617   -3.2054   51.6010 O.2     1  ZINC000444205493   -0.5100
      4 N4        -13.6792   -1.7808   51.8496 N.am    1  ZINC000444205493   -0.6800
      5 C5        -13.3537   -2.3173   53.1007 C.ar    1  ZINC000444205493    0.2300
      6 C6        -14.3529   -2.5705   54.0304 C.ar    1  ZINC000444205493   -0.1400
      7 C7        -14.0285   -3.1006   55.2642 C.ar    1  ZINC000444205493    0.0200
      8 C8        -12.7102   -3.3787   55.5741 C.ar    1  ZINC000444205493   -0.6900
      9 S9        -12.3011   -4.0542   57.1492 S.o2    1  ZINC000444205493    2.7100
     10 O10       -13.4116   -4.8466   57.5467 O.2     1  ZINC000444205493   -0.9500
     11 O11       -10.9810   -4.5677   57.0351 O.2     1  ZINC000444205493   -0.9500
     12 N12       -12.2209   -2.7919   58.2182 N.am    1  ZINC000444205493   -1.0100
     13 C13       -13.3251   -1.8699   58.5450 C.3     1  ZINC000444205493    0.1200
     14 C14       -12.9831   -1.3194   59.9541 C.3     1  ZINC000444205493   -0.1200
     15 C15       -11.4474   -1.2168   59.8787 C.3     1  ZINC000444205493   -0.0700
     16 C16       -11.0193    0.1150   59.2538 C.3     1  ZINC000444205493   -0.1100
     17 C17       -10.6676    1.0043   60.4753 C.3     1  ZINC000444205493   -0.1200
     18 C18       -10.0081    0.0007   61.4552 C.3     1  ZINC000444205493   -0.1000
     19 H19        -8.9634   -0.1612   61.1895 H       1  ZINC000444205493    0.0700
     20 C20       -10.1210    0.5055   62.8950 C.3     1  ZINC000444205493   -0.1500
     21 C21       -10.8210   -1.3007   61.2701 C.3     1  ZINC000444205493   -0.1100
     22 C22       -11.0371   -2.4073   59.0056 C.3     1  ZINC000444205493    0.1300
     23 C23       -11.7118   -3.1283   54.6505 C.ar    1  ZINC000444205493    0.0300
     24 C24       -12.0299   -2.6031   53.4128 C.ar    1  ZINC000444205493   -0.1500
     25 Br25      -10.6644   -2.2608   52.1501 Br      1  ZINC000444205493   -0.0300
     26 H26       -15.9206   -2.2413   49.3891 H       1  ZINC000444205493    0.1000
     27 H27       -15.3114   -0.6525   49.9118 H       1  ZINC000444205493    0.1000
     28 H28       -14.2127   -1.8132   49.1282 H       1  ZINC000444205493    0.1000
     29 H29       -13.1607   -1.0453   51.4875 H       1  ZINC000444205493    0.4200
     30 H30       -15.3831   -2.3530   53.7895 H       1  ZINC000444205493    0.1600
     31 H31       -14.8058   -3.2977   55.9877 H       1  ZINC000444205493    0.1500
     32 H32       -13.3669   -1.0567   57.8203 H       1  ZINC000444205493    0.0800
     33 H33       -14.2732   -2.4072   58.5679 H       1  ZINC000444205493    0.0800
     34 H34       -13.4333   -0.3391   60.1108 H       1  ZINC000444205493    0.0900
     35 H35       -13.2906   -2.0181   60.7322 H       1  ZINC000444205493    0.0800
     36 H36       -10.1450   -0.0244   58.6179 H       1  ZINC000444205493    0.0700
     37 H37       -11.8404    0.5526   58.6860 H       1  ZINC000444205493    0.0700
     38 H38        -9.9635    1.7870   60.1929 H       1  ZINC000444205493    0.0700
     39 H39       -11.5691    1.4340   60.9120 H       1  ZINC000444205493    0.0700
     40 H40       -11.1716    0.6437   63.1503 H       1  ZINC000444205493    0.0500
     41 H41        -9.6755   -0.2237   63.5717 H       1  ZINC000444205493    0.0500
     42 H42        -9.5961    1.4562   62.9890 H       1  ZINC000444205493    0.0500
     43 H43       -11.6008   -1.3667   62.0289 H       1  ZINC000444205493    0.0700
     44 H44       -10.1619   -2.1665   61.3329 H       1  ZINC000444205493    0.0700
     45 H45       -10.7165   -3.2373   59.6351 H       1  ZINC000444205493    0.0700
     46 H46       -10.2293   -2.1154   58.3344 H       1  ZINC000444205493    0.0800
     47 H47       -10.6829   -3.3469   54.8955 H       1  ZINC000444205493    0.1500
@<TRIPOS>BOND
     1     1     2    1
     2     1    26    1
     3     1    27    1
     4     1    28    1
     5     2     3    2
     6     2     4   am
     7     4     5    1
     8     4    29    1
     9     5    24   ar
    10     5     6   ar
    11     6     7   ar
    12     6    30    1
    13     7     8   ar
    14     7    31    1
    15     8     9    1
    16     8    23   ar
    17     9    10    2
    18     9    11    2
    19     9    12   am
    20    12    22    1
    21    12    13    1
    22    13    14    1
    23    13    32    1
    24    13    33    1
    25    14    15    1
    26    14    34    1
    27    14    35    1
    28    15    21    1
    29    15    16    1
    30    15    22    1
    31    16    17    1
    32    16    36    1
    33    16    37    1
    34    17    18    1
    35    17    38    1
    36    17    39    1
    37    18    19    1
    38    18    20    1
    39    18    21    1
    40    20    40    1
    41    20    41    1
    42    20    42    1
    43    21    43    1
    44    21    44    1
    45    22    45    1
    46    22    46    1
    47    23    24   ar
    48    23    47    1
    49    24    25    1
@<TRIPOS>SUBSTRUCTURE
     1 ZINC000444205493        1 TEMP              0 ****  ****    0 ROOT


##########                                Name:    ZINC000496437542
##########                DOCK_Rotatable_Bonds:                   7
##########                         Heavy_Atoms:                  24
##########                    Molecular_Weight:             338.447
##########                DOCK_Rotatable_Bonds:                   7
##########                       Formal_Charge:           0.0400002
##########                     HBond_Acceptors:                   6
##########                        HBond_Donors:                   1
##########                         Heavy_Atoms:                  24
##########                          Grid_Score:          -29.862089
##########                     Grid_vdw_energy:          -28.761681
##########                      Grid_es_energy:           -1.100408
##########           Internal_energy_repulsive:           24.174929

@<TRIPOS>MOLECULE
ZINC000496437542
 54 55 1 0 0
SMALL
USER_CHARGES


@<TRIPOS>ATOM
      1 C1        -13.8968    0.6483   63.4647 C.3     1  ZINC000496437542   -0.1800
      2 C2        -13.4310    2.0750   63.1668 C.3     1  ZINC000496437542    0.1400
      3 C3        -14.3412    2.6976   62.1063 C.3     1  ZINC000496437542   -0.1800
      4 C4        -13.4946    2.9099   64.4473 C.3     1  ZINC000496437542   -0.1400
      5 O5        -12.0651    2.0455   62.6755 O.3     1  ZINC000496437542   -0.3600
      6 C6        -11.7744    1.1299   61.7322 C.2     1  ZINC000496437542    0.6600
      7 O7        -12.5982    0.8485   60.8844 O.2     1  ZINC000496437542   -0.5600
      8 N8        -10.5698    0.5254   61.7282 N.am    1  ZINC000496437542   -0.6000
      9 C9         -9.5563    0.8497   62.7445 C.3     1  ZINC000496437542    0.0800
     10 C10        -9.0470   -0.4610   63.3549 C.3     1  ZINC000496437542    0.0500
     11 O11        -8.6352   -1.3403   62.3056 O.3     1  ZINC000496437542   -0.3700
     12 C12        -9.6875   -1.7248   61.4175 C.3     1  ZINC000496437542    0.0700
     13 H13       -10.4887   -2.1978   61.9855 H       1  ZINC000496437542    0.0700
     14 C14        -9.1461   -2.7103   60.3800 C.3     1  ZINC000496437542    0.1300
     15 N15       -10.2575   -3.2517   59.5940 N.am    1  ZINC000496437542   -0.7200
     16 C16       -10.3349   -2.9981   58.2726 C.2     1  ZINC000496437542    0.5600
     17 O17        -9.4812   -2.3210   57.7324 O.2     1  ZINC000496437542   -0.5400
     18 C18       -11.4518   -3.5403   57.4837 C.2     1  ZINC000496437542   -0.1900
     19 C19       -11.7191   -4.8277   57.5257 C.2     1  ZINC000496437542   -0.0600
     20 C20       -12.8661   -5.3964   56.7173 C.3     1  ZINC000496437542   -0.1000
     21 C21       -14.1823   -4.9496   57.3576 C.3     1  ZINC000496437542   -0.1100
     22 C22       -14.5939   -3.5814   56.8457 C.3     1  ZINC000496437542   -0.1200
     23 C23       -13.6660   -2.4603   57.2770 C.3     1  ZINC000496437542   -0.1200
     24 C24       -12.2926   -2.6131   56.6317 C.3     1  ZINC000496437542   -0.0800
     25 C25       -10.2316   -0.4829   60.7112 C.3     1  ZINC000496437542    0.1000
     26 H26       -13.8516    0.0534   62.5524 H       1  ZINC000496437542    0.0900
     27 H27       -13.2484    0.2048   64.2202 H       1  ZINC000496437542    0.0600
     28 H28       -14.9223    0.6704   63.8336 H       1  ZINC000496437542    0.0700
     29 H29       -15.3666    2.7198   62.4752 H       1  ZINC000496437542    0.0700
     30 H30       -14.0095    3.7141   61.8942 H       1  ZINC000496437542    0.0600
     31 H31       -14.2960    2.1028   61.1940 H       1  ZINC000496437542    0.0900
     32 H32       -12.8461    2.4663   65.2029 H       1  ZINC000496437542    0.0700
     33 H33       -13.1628    3.9263   64.2352 H       1  ZINC000496437542    0.0700
     34 H34       -14.5200    2.9320   64.8163 H       1  ZINC000496437542    0.0800
     35 H35        -8.7280    1.3843   62.2793 H       1  ZINC000496437542    0.0800
     36 H36       -10.0021    1.4685   63.5232 H       1  ZINC000496437542    0.1000
     37 H37        -8.2002   -0.2532   64.0091 H       1  ZINC000496437542    0.1100
     38 H38        -9.8458   -0.9294   63.9299 H       1  ZINC000496437542    0.0600
     39 H39        -8.4500   -2.1950   59.7180 H       1  ZINC000496437542    0.0900
     40 H40        -8.6292   -3.5248   60.8875 H       1  ZINC000496437542    0.0800
     41 H41       -10.9377   -3.7928   60.0246 H       1  ZINC000496437542    0.4000
     42 H42       -11.1175   -5.4819   58.1393 H       1  ZINC000496437542    0.1300
     43 H43       -12.8122   -5.0248   55.6940 H       1  ZINC000496437542    0.0800
     44 H44       -12.8098   -6.4849   56.7176 H       1  ZINC000496437542    0.0800
     45 H45       -14.9619   -5.6722   57.1163 H       1  ZINC000496437542    0.0700
     46 H46       -14.0579   -4.9052   58.4396 H       1  ZINC000496437542    0.0700
     47 H47       -14.6205   -3.6111   55.7564 H       1  ZINC000496437542    0.0600
     48 H48       -15.5976   -3.3613   57.2092 H       1  ZINC000496437542    0.0600
     49 H49       -14.0974   -1.5039   56.9814 H       1  ZINC000496437542    0.0700
     50 H50       -13.5556   -2.4832   58.3611 H       1  ZINC000496437542    0.0600
     51 H51       -11.8088   -1.6385   56.5656 H       1  ZINC000496437542    0.0700
     52 H52       -12.4021   -3.0387   55.6342 H       1  ZINC000496437542    0.0800
     53 H53       -11.1232   -0.7455   60.1416 H       1  ZINC000496437542    0.1100
     54 H54        -9.4726   -0.0798   60.0407 H       1  ZINC000496437542    0.0900
@<TRIPOS>BOND
     1     1     2    1
     2     1    26    1
     3     1    27    1
     4     1    28    1
     5     2     3    1
     6     2     4    1
     7     2     5    1
     8     3    29    1
     9     3    30    1
    10     3    31    1
    11     4    32    1
    12     4    33    1
    13     4    34    1
    14     5     6    1
    15     6     7    2
    16     6     8   am
    17     8    25    1
    18     8     9    1
    19     9    10    1
    20     9    35    1
    21     9    36    1
    22    10    11    1
    23    10    37    1
    24    10    38    1
    25    11    12    1
    26    12    13    1
    27    12    14    1
    28    12    25    1
    29    14    15    1
    30    14    39    1
    31    14    40    1
    32    15    16   am
    33    15    41    1
    34    16    17    2
    35    16    18    1
    36    18    24    1
    37    18    19    2
    38    19    20    1
    39    19    42    1
    40    20    21    1
    41    20    43    1
    42    20    44    1
    43    21    22    1
    44    21    45    1
    45    21    46    1
    46    22    23    1
    47    22    47    1
    48    22    48    1
    49    23    24    1
    50    23    49    1
    51    23    50    1
    52    24    51    1
    53    24    52    1
    54    25    53    1
    55    25    54    1
@<TRIPOS>SUBSTRUCTURE
     1 ZINC000496437542        1 TEMP              0 ****  ****    0 ROOT


##########                                Name:    ZINC000626935317
##########                DOCK_Rotatable_Bonds:                   6
##########                         Heavy_Atoms:                  25
##########                    Molecular_Weight:             366.441
##########                DOCK_Rotatable_Bonds:                   6
##########                       Formal_Charge:          -0.0200006
##########                     HBond_Acceptors:                   9
##########                        HBond_Donors:                   2
##########                         Heavy_Atoms:                  25
##########                          Grid_Score:          -29.858715
##########                     Grid_vdw_energy:          -29.038223
##########                      Grid_es_energy:           -0.820492
##########           Internal_energy_repulsive:           10.172892

@<TRIPOS>MOLECULE
ZINC000626935317
 47 49 1 0 0
SMALL
USER_CHARGES


@<TRIPOS>ATOM
      1 C1        -13.2414   -2.6209   61.1453 C.3     1  ZINC000626935317    0.0900
      2 N2        -13.3537   -2.8356   59.7005 N.am    1  ZINC000626935317   -0.6200
      3 C3        -14.4601   -3.2862   59.0844 C.2     1  ZINC000626935317    0.5200
      4 O4        -15.4967   -3.5768   59.6430 O.2     1  ZINC000626935317   -0.5200
      5 C5        -14.2244   -3.3778   57.5928 C.3     1  ZINC000626935317   -0.1500
      6 C6        -12.9570   -2.5242   57.3562 C.3     1  ZINC000626935317   -0.1200
      7 H7        -13.2200   -1.4988   57.0967 H       1  ZINC000626935317    0.1200
      8 C8        -12.0832   -3.1394   56.2935 C.2     1  ZINC000626935317    0.5300
      9 O9        -11.4756   -4.1630   56.5256 O.2     1  ZINC000626935317   -0.5200
     10 N10       -11.9769   -2.5518   55.0852 N.am    1  ZINC000626935317   -0.7100
     11 C11       -11.1262   -3.1488   54.0527 C.3     1  ZINC000626935317    0.1200
     12 C12       -11.9148   -3.8513   52.9349 C.3     1  ZINC000626935317   -0.1600
     13 C13       -11.9382   -2.4965   52.2076 C.3     1  ZINC000626935317    0.1200
     14 N14       -13.0874   -1.6599   52.5622 N.am    1  ZINC000626935317   -1.1100
     15 S15       -13.6496   -0.5286   51.4915 S.o2    1  ZINC000626935317    2.6100
     16 C16       -14.1189   -1.4874   50.0249 C.3     1  ZINC000626935317   -0.6700
     17 O17       -14.8020    0.0106   52.1244 O.2     1  ZINC000626935317   -0.9500
     18 O18       -12.5178    0.2847   51.2145 O.2     1  ZINC000626935317   -0.9500
     19 C19       -10.6581   -2.1462   52.9847 C.3     1  ZINC000626935317   -0.1600
     20 C20       -12.2746   -2.5802   58.7390 C.3     1  ZINC000626935317    0.2000
     21 H21       -11.5501   -3.3941   58.7696 H       1  ZINC000626935317    0.1100
     22 C22       -11.5970   -1.2682   59.0397 C.ar    1  ZINC000626935317   -0.1600
     23 C23       -12.3486   -0.1242   59.2595 C.ar    1  ZINC000626935317   -0.0500
     24 C24       -11.6822    1.0607   59.5332 C.ar    1  ZINC000626935317   -0.1700
     25 C25       -10.3012    1.0619   59.5775 C.ar    1  ZINC000626935317    0.1000
     26 N26        -9.6183   -0.0459   59.3632 N.ar    1  ZINC000626935317   -0.4800
     27 C27       -10.2185   -1.1914   59.1054 C.ar    1  ZINC000626935317    0.1200
     28 H28       -13.5466   -1.6026   61.3862 H       1  ZINC000626935317    0.0600
     29 H29       -13.8862   -3.3269   61.6688 H       1  ZINC000626935317    0.0800
     30 H30       -12.2078   -2.7736   61.4561 H       1  ZINC000626935317    0.0700
     31 H31       -14.0486   -4.4120   57.2973 H       1  ZINC000626935317    0.1100
     32 H32       -15.0714   -2.9626   57.0466 H       1  ZINC000626935317    0.1200
     33 H33       -12.4639   -1.7338   54.8991 H       1  ZINC000626935317    0.4000
     34 H34       -10.3197   -3.7541   54.4666 H       1  ZINC000626935317    0.1100
     35 H35       -11.3426   -4.6177   52.4121 H       1  ZINC000626935317    0.1100
     36 H36       -12.9006   -4.1966   53.2467 H       1  ZINC000626935317    0.0800
     37 H37       -11.7889   -2.5763   51.1309 H       1  ZINC000626935317    0.1100
     38 H38       -13.5189   -1.7686   53.4242 H       1  ZINC000626935317    0.4100
     39 H39       -14.8886   -2.2105   50.2944 H       1  ZINC000626935317    0.1300
     40 H40       -14.5047   -0.8145   49.2590 H       1  ZINC000626935317    0.1300
     41 H41       -13.2452   -2.0133   49.6397 H       1  ZINC000626935317    0.1300
     42 H42       -10.6293   -1.1150   53.3366 H       1  ZINC000626935317    0.0900
     43 H43        -9.7424   -2.4465   52.4755 H       1  ZINC000626935317    0.1100
     44 H44       -13.4273   -0.1550   59.2181 H       1  ZINC000626935317    0.1400
     45 H45       -12.2357    1.9713   59.7093 H       1  ZINC000626935317    0.1400
     46 H46        -9.7746    1.9807   59.7897 H       1  ZINC000626935317    0.1600
     47 H47        -9.6258   -2.0780   58.9352 H       1  ZINC000626935317    0.1500
@<TRIPOS>BOND
     1     1     2    1
     2     1    28    1
     3     1    29    1
     4     1    30    1
     5     2    20    1
     6     2     3   am
     7     3     4    2
     8     3     5    1
     9     5     6    1
    10     5    31    1
    11     5    32    1
    12     6     7    1
    13     6     8    1
    14     6    20    1
    15     8     9    2
    16     8    10   am
    17    10    11    1
    18    10    33    1
    19    11    19    1
    20    11    12    1
    21    11    34    1
    22    12    13    1
    23    12    35    1
    24    12    36    1
    25    13    14    1
    26    13    19    1
    27    13    37    1
    28    14    15   am
    29    14    38    1
    30    15    16    1
    31    15    17    2
    32    15    18    2
    33    16    39    1
    34    16    40    1
    35    16    41    1
    36    19    42    1
    37    19    43    1
    38    20    21    1
    39    20    22    1
    40    22    27   ar
    41    22    23   ar
    42    23    24   ar
    43    23    44    1
    44    24    25   ar
    45    24    45    1
    46    25    26   ar
    47    25    46    1
    48    26    27   ar
    49    27    47    1
@<TRIPOS>SUBSTRUCTURE
     1 ZINC000626935317        1 TEMP              0 ****  ****    0 ROOT


##########                                Name:    ZINC000437443367
##########                DOCK_Rotatable_Bonds:                   8
##########                         Heavy_Atoms:                  24
##########                    Molecular_Weight:             334.434
##########                DOCK_Rotatable_Bonds:                   8
##########                       Formal_Charge:          -0.0500003
##########                     HBond_Acceptors:                   5
##########                        HBond_Donors:                   1
##########                         Heavy_Atoms:                  24
##########                          Grid_Score:          -29.713865
##########                     Grid_vdw_energy:          -30.053307
##########                      Grid_es_energy:            0.339441
##########           Internal_energy_repulsive:           27.760670

@<TRIPOS>MOLECULE
ZINC000437443367
 51 52 1 0 0
SMALL
USER_CHARGES


@<TRIPOS>ATOM
      1 C1         -8.3421    1.9406   53.7195 C.3     1  ZINC000437443367   -0.1200
      2 C2         -8.7976    0.5744   53.2757 C.ar    1  ZINC000437443367   -0.1000
      3 C3         -9.9707    0.0430   53.7731 C.ar    1  ZINC000437443367   -0.1200
      4 C4        -10.3901   -1.2167   53.3635 C.ar    1  ZINC000437443367    0.1400
      5 N5        -11.5780   -1.7567   53.8655 N.am    1  ZINC000437443367   -0.6400
      6 C6        -11.5526   -2.9110   54.5606 C.2     1  ZINC000437443367    0.5000
      7 O7        -10.4985   -3.4819   54.7510 O.2     1  ZINC000437443367   -0.4800
      8 C8        -12.8216   -3.4878   55.0968 C.2     1  ZINC000437443367    0.5100
      9 O9        -13.3820   -4.3825   54.4983 O.2     1  ZINC000437443367   -0.5200
     10 N10       -13.3444   -3.0146   56.2455 N.am    1  ZINC000437443367   -0.5700
     11 C11       -12.6679   -1.9346   56.9680 C.3     1  ZINC000437443367    0.0900
     12 C12       -11.4865   -2.5081   57.7533 C.3     1  ZINC000437443367   -0.1200
     13 C13       -10.8150   -1.3901   58.5532 C.3     1  ZINC000437443367   -0.0900
     14 C14        -9.7356   -1.9878   59.4580 C.3     1  ZINC000437443367   -0.1400
     15 C15       -10.1757   -0.3873   57.5905 C.3     1  ZINC000437443367   -0.1500
     16 C16       -14.5892   -3.5804   56.7714 C.3     1  ZINC000437443367    0.1300
     17 C17       -14.3184   -4.3019   58.1079 C.3     1  ZINC000437443367   -0.1300
     18 C18       -14.6606   -3.2443   59.1866 C.3     1  ZINC000437443367   -0.1300
     19 C19       -15.8972   -2.5310   58.5856 C.3     1  ZINC000437443367   -0.1200
     20 C20       -15.5929   -2.4544   57.0752 C.3     1  ZINC000437443367   -0.1400
     21 C21        -9.6277   -1.9385   52.4541 C.ar    1  ZINC000437443367   -0.1100
     22 C22        -8.4548   -1.4029   51.9592 C.ar    1  ZINC000437443367   -0.1300
     23 C23        -8.0417   -0.1449   52.3646 C.ar    1  ZINC000437443367    0.0800
     24 F24        -6.8941    0.3771   51.8792 F       1  ZINC000437443367   -0.1400
     25 H25        -8.7583    2.6965   53.0536 H       1  ZINC000437443367    0.0800
     26 H26        -8.6851    2.1249   54.7376 H       1  ZINC000437443367    0.0700
     27 H27        -7.2537    1.9886   53.6885 H       1  ZINC000437443367    0.0700
     28 H28       -10.5618    0.6058   54.4803 H       1  ZINC000437443367    0.1400
     29 H29       -12.4204   -1.3004   53.7135 H       1  ZINC000437443367    0.4200
     30 H30       -12.3054   -1.1928   56.2564 H       1  ZINC000437443367    0.0900
     31 H31       -13.3687   -1.4643   57.6578 H       1  ZINC000437443367    0.1000
     32 H32       -11.8440   -3.2790   58.4358 H       1  ZINC000437443367    0.0700
     33 H33       -10.7660   -2.9421   57.0601 H       1  ZINC000437443367    0.0600
     34 H34       -11.5610   -0.8821   59.1644 H       1  ZINC000437443367    0.0600
     35 H35        -8.9897   -2.4957   58.8467 H       1  ZINC000437443367    0.0600
     36 H36        -9.2573   -1.1913   60.0278 H       1  ZINC000437443367    0.0400
     37 H37       -10.1911   -2.7021   60.1438 H       1  ZINC000437443367    0.0600
     38 H38       -10.9447    0.0385   56.9460 H       1  ZINC000437443367    0.0500
     39 H39        -9.6974    0.4092   58.1604 H       1  ZINC000437443367    0.0500
     40 H40        -9.4298   -0.8953   56.9794 H       1  ZINC000437443367    0.0500
     41 H41       -15.0164   -4.2771   56.0501 H       1  ZINC000437443367    0.1000
     42 H42       -14.9655   -5.1730   58.2090 H       1  ZINC000437443367    0.0800
     43 H43       -13.2706   -4.5935   58.1785 H       1  ZINC000437443367    0.0700
     44 H44       -14.9132   -3.7244   60.1319 H       1  ZINC000437443367    0.0700
     45 H45       -13.8356   -2.5438   59.3161 H       1  ZINC000437443367    0.0700
     46 H46       -16.7993   -3.1162   58.7639 H       1  ZINC000437443367    0.0700
     47 H47       -16.0015   -1.5302   59.0049 H       1  ZINC000437443367    0.0700
     48 H48       -15.1540   -1.4870   56.8313 H       1  ZINC000437443367    0.0800
     49 H49       -16.5078   -2.6050   56.5020 H       1  ZINC000437443367    0.0700
     50 H50        -9.9516   -2.9179   52.1346 H       1  ZINC000437443367    0.1600
     51 H51        -7.8616   -1.9637   51.2520 H       1  ZINC000437443367    0.1400
@<TRIPOS>BOND
     1     1     2    1
     2     1    25    1
     3     1    26    1
     4     1    27    1
     5     2    23   ar
     6     2     3   ar
     7     3     4   ar
     8     3    28    1
     9     4     5    1
    10     4    21   ar
    11     5     6   am
    12     5    29    1
    13     6     7    2
    14     6     8    1
    15     8     9    2
    16     8    10   am
    17    10    11    1
    18    10    16    1
    19    11    12    1
    20    11    30    1
    21    11    31    1
    22    12    13    1
    23    12    32    1
    24    12    33    1
    25    13    14    1
    26    13    15    1
    27    13    34    1
    28    14    35    1
    29    14    36    1
    30    14    37    1
    31    15    38    1
    32    15    39    1
    33    15    40    1
    34    16    20    1
    35    16    17    1
    36    16    41    1
    37    17    18    1
    38    17    42    1
    39    17    43    1
    40    18    19    1
    41    18    44    1
    42    18    45    1
    43    19    20    1
    44    19    46    1
    45    19    47    1
    46    20    48    1
    47    20    49    1
    48    21    22   ar
    49    21    50    1
    50    22    23   ar
    51    22    51    1
    52    23    24    1
@<TRIPOS>SUBSTRUCTURE
     1 ZINC000437443367        1 TEMP              0 ****  ****    0 ROOT


##########                                Name:    ZINC000482910431
##########                DOCK_Rotatable_Bonds:                   7
##########                         Heavy_Atoms:                  29
##########                    Molecular_Weight:             414.867
##########                DOCK_Rotatable_Bonds:                   7
##########                       Formal_Charge:          -0.0300001
##########                     HBond_Acceptors:                   8
##########                        HBond_Donors:                   2
##########                         Heavy_Atoms:                  29
##########                          Grid_Score:          -29.694468
##########                     Grid_vdw_energy:          -30.065155
##########                      Grid_es_energy:            0.370687
##########           Internal_energy_repulsive:           24.849030

@<TRIPOS>MOLECULE
ZINC000482910431
 49 51 1 0 0
SMALL
USER_CHARGES


@<TRIPOS>ATOM
      1 C1         -6.6882    1.0064   51.2222 C.3     1  ZINC000482910431   -0.1500
      2 C2         -7.7783    1.9592   51.7167 C.3     1  ZINC000482910431    0.0800
      3 C3         -7.2406    2.7862   52.8863 C.3     1  ZINC000482910431   -0.1400
      4 C4         -8.1773    2.8589   50.6222 C.1     1  ZINC000482910431    0.2100
      5 N5         -8.4851    3.5532   49.7774 N.1     1  ZINC000482910431   -0.4300
      6 C6         -8.9732    1.1622   52.1726 C.ar    1  ZINC000482910431   -0.1000
      7 C7         -8.8682   -0.2071   52.3344 C.ar    1  ZINC000482910431   -0.0900
      8 C8         -9.9614   -0.9404   52.7526 C.ar    1  ZINC000482910431   -0.1200
      9 C9        -11.1668   -0.3012   53.0106 C.ar    1  ZINC000482910431    0.1700
     10 N10       -12.2762   -1.0414   53.4349 N.am    1  ZINC000482910431   -0.6800
     11 C11       -12.2355   -1.7043   54.6075 C.2     1  ZINC000482910431    0.7100
     12 O12       -11.2349   -1.6596   55.2968 O.2     1  ZINC000482910431   -0.5500
     13 N13       -13.3039   -2.4171   55.0162 N.am    1  ZINC000482910431   -0.7300
     14 C14       -13.2590   -3.1393   56.2900 C.3     1  ZINC000482910431    0.1400
     15 H15       -14.2389   -3.5533   56.5275 H       1  ZINC000482910431    0.1400
     16 C16       -12.1955   -4.2606   56.2392 C.3     1  ZINC000482910431   -0.1400
     17 C17       -11.6299   -4.2236   57.6763 C.3     1  ZINC000482910431    0.0900
     18 N18       -11.8689   -2.8574   58.1561 N.am    1  ZINC000482910431   -0.5600
     19 C19       -11.2267   -2.2843   59.2599 C.ar    1  ZINC000482910431    0.2000
     20 C20        -9.8443   -2.1551   59.2701 C.ar    1  ZINC000482910431   -0.1600
     21 C21        -9.2116   -1.5894   60.3601 C.ar    1  ZINC000482910431   -0.0500
     22 C22        -9.9536   -1.1512   61.4419 C.ar    1  ZINC000482910431   -0.1000
     23 Cl23       -9.1550   -0.4407   62.8100 Cl      1  ZINC000482910431   -0.0500
     24 C24       -11.3340   -1.2780   61.4352 C.ar    1  ZINC000482910431    0.1400
     25 F25       -12.0569   -0.8488   62.4927 F       1  ZINC000482910431   -0.1200
     26 C26       -11.9717   -1.8390   60.3438 C.ar    1  ZINC000482910431   -0.1900
     27 C27       -12.7870   -2.2260   57.4000 C.2     1  ZINC000482910431    0.5000
     28 O28       -13.1744   -1.0910   57.5809 O.2     1  ZINC000482910431   -0.4800
     29 C29       -11.2691    1.0740   52.8472 C.ar    1  ZINC000482910431   -0.1400
     30 C30       -10.1708    1.8023   52.4339 C.ar    1  ZINC000482910431   -0.0900
     31 H31        -6.3928    0.3402   52.0327 H       1  ZINC000482910431    0.0800
     32 H32        -7.0713    0.4172   50.3889 H       1  ZINC000482910431    0.0700
     33 H33        -5.8239    1.5829   50.8924 H       1  ZINC000482910431    0.0700
     34 H34        -6.3763    3.3628   52.5565 H       1  ZINC000482910431    0.0700
     35 H35        -8.0172    3.4650   53.2387 H       1  ZINC000482910431    0.0700
     36 H36        -6.9451    2.1201   53.6969 H       1  ZINC000482910431    0.0800
     37 H37        -7.9305   -0.7038   52.1333 H       1  ZINC000482910431    0.1400
     38 H38        -9.8788   -2.0099   52.8784 H       1  ZINC000482910431    0.1400
     39 H39       -13.0744   -1.0771   52.8849 H       1  ZINC000482910431    0.4100
     40 H40       -14.1026   -2.4519   54.4669 H       1  ZINC000482910431    0.4000
     41 H41       -12.6558   -5.2253   56.0258 H       1  ZINC000482910431    0.1100
     42 H42       -11.4200   -4.0299   55.5088 H       1  ZINC000482910431    0.1000
     43 H43       -12.1544   -4.9418   58.3066 H       1  ZINC000482910431    0.0900
     44 H44       -10.5614   -4.4386   57.6668 H       1  ZINC000482910431    0.1000
     45 H45        -9.2636   -2.4973   58.4261 H       1  ZINC000482910431    0.1700
     46 H46        -8.1362   -1.4895   60.3677 H       1  ZINC000482910431    0.1500
     47 H47       -13.0472   -1.9377   60.3377 H       1  ZINC000482910431    0.1500
     48 H48       -12.2053    1.5740   53.0471 H       1  ZINC000482910431    0.1300
     49 H49       -10.2495    2.8720   52.3069 H       1  ZINC000482910431    0.1300
@<TRIPOS>BOND
     1     1     2    1
     2     1    31    1
     3     1    32    1
     4     1    33    1
     5     2     3    1
     6     2     4    1
     7     2     6    1
     8     3    34    1
     9     3    35    1
    10     3    36    1
    11     4     5    3
    12     6    30   ar
    13     6     7   ar
    14     7     8   ar
    15     7    37    1
    16     8     9   ar
    17     8    38    1
    18     9    10    1
    19     9    29   ar
    20    10    11   am
    21    10    39    1
    22    11    12    2
    23    11    13   am
    24    13    14    1
    25    13    40    1
    26    14    15    1
    27    14    27    1
    28    14    16    1
    29    16    17    1
    30    16    41    1
    31    16    42    1
    32    17    18    1
    33    17    43    1
    34    17    44    1
    35    18    19    1
    36    18    27   am
    37    19    26   ar
    38    19    20   ar
    39    20    21   ar
    40    20    45    1
    41    21    22   ar
    42    21    46    1
    43    22    23    1
    44    22    24   ar
    45    24    25    1
    46    24    26   ar
    47    26    47    1
    48    27    28    2
    49    29    30   ar
    50    29    48    1
    51    30    49    1
@<TRIPOS>SUBSTRUCTURE
     1 ZINC000482910431        1 TEMP              0 ****  ****    0 ROOT


##########                                Name:    ZINC000252489163
##########                DOCK_Rotatable_Bonds:                   6
##########                         Heavy_Atoms:                  25
##########                    Molecular_Weight:             379.403
##########                DOCK_Rotatable_Bonds:                   6
##########                       Formal_Charge:          0.00999963
##########                     HBond_Acceptors:                  10
##########                        HBond_Donors:                   2
##########                         Heavy_Atoms:                  25
##########                          Grid_Score:          -29.680138
##########                     Grid_vdw_energy:          -29.946411
##########                      Grid_es_energy:            0.266273
##########           Internal_energy_repulsive:           10.223166

@<TRIPOS>MOLECULE
ZINC000252489163
 45 46 1 0 0
SMALL
USER_CHARGES


@<TRIPOS>ATOM
      1 C1         -8.3488    0.6512   65.1069 C.3     1  ZINC000252489163   -0.1100
      2 C2         -9.6158    0.5282   64.3003 C.ar    1  ZINC000252489163   -0.0600
      3 C3         -9.6317   -0.2419   63.1542 C.ar    1  ZINC000252489163   -0.1300
      4 C4        -10.7998   -0.3552   62.4115 C.ar    1  ZINC000252489163    0.1700
      5 N5        -10.8194   -1.1353   61.2498 N.am    1  ZINC000252489163   -0.6800
      6 C6        -10.2798   -0.6602   60.1098 C.2     1  ZINC000252489163    0.7100
      7 O7         -9.7760    0.4463   60.0907 O.2     1  ZINC000252489163   -0.5500
      8 N8        -10.2986   -1.4115   58.9911 N.am    1  ZINC000252489163   -0.6200
      9 C9         -9.7145   -0.9073   57.7407 C.3     1  ZINC000252489163    0.1000
     10 C10       -10.7650   -1.0070   56.6303 C.3     1  ZINC000252489163   -0.1400
     11 C11       -11.2796   -2.4460   56.5482 C.3     1  ZINC000252489163   -0.1300
     12 C12       -11.9404   -2.8298   57.8741 C.3     1  ZINC000252489163    0.1400
     13 H13       -12.7590   -2.1416   58.0851 H       1  ZINC000252489163    0.0900
     14 N14       -12.4611   -4.1961   57.7837 N.am    1  ZINC000252489163   -1.1100
     15 S15       -14.0941   -4.4555   57.6911 S.o2    1  ZINC000252489163    2.6100
     16 C16       -14.6054   -3.5878   56.1824 C.3     1  ZINC000252489163   -0.6700
     17 O17       -14.2167   -5.8612   57.5238 O.2     1  ZINC000252489163   -0.9500
     18 O18       -14.6178   -3.8061   58.8415 O.2     1  ZINC000252489163   -0.9500
     19 C19       -10.8981   -2.7528   59.0001 C.3     1  ZINC000252489163    0.1100
     20 C20       -11.9483    0.3068   62.8243 C.ar    1  ZINC000252489163   -0.1000
     21 C21       -11.9259    1.0757   63.9717 C.ar    1  ZINC000252489163   -0.1600
     22 C22       -13.1721    1.7947   64.4205 C.3     1  ZINC000252489163    0.5100
     23 F23       -13.4824    1.4161   65.7310 F       1  ZINC000252489163   -0.1700
     24 F24       -12.9562    3.1761   64.3729 F       1  ZINC000252489163   -0.1800
     25 F25       -14.2344    1.4593   63.5742 F       1  ZINC000252489163   -0.1800
     26 C26       -10.7629    1.1822   64.7117 C.ar    1  ZINC000252489163   -0.0900
     27 H27        -8.3148   -0.1424   65.8533 H       1  ZINC000252489163    0.0800
     28 H28        -7.4870    0.5650   64.4452 H       1  ZINC000252489163    0.0700
     29 H29        -8.3283    1.6202   65.6057 H       1  ZINC000252489163    0.0700
     30 H30        -8.7366   -0.7555   62.8354 H       1  ZINC000252489163    0.1300
     31 H31       -11.2213   -2.0181   61.2650 H       1  ZINC000252489163    0.4100
     32 H32        -9.4171    0.1334   57.8700 H       1  ZINC000252489163    0.0800
     33 H33        -8.8443   -1.5079   57.4757 H       1  ZINC000252489163    0.0800
     34 H34       -11.5947   -0.3362   56.8531 H       1  ZINC000252489163    0.0700
     35 H35       -10.3154   -0.7266   55.6778 H       1  ZINC000252489163    0.0900
     36 H36       -12.0094   -2.5253   55.7424 H       1  ZINC000252489163    0.0800
     37 H37       -10.4455   -3.1192   56.3500 H       1  ZINC000252489163    0.0800
     38 H38       -11.8493   -4.9488   57.7779 H       1  ZINC000252489163    0.4200
     39 H39       -14.0776   -4.0069   55.3257 H       1  ZINC000252489163    0.1300
     40 H40       -15.6796   -3.7069   56.0411 H       1  ZINC000252489163    0.1300
     41 H41       -14.3662   -2.5283   56.2737 H       1  ZINC000252489163    0.1300
     42 H42       -10.1266   -3.5050   58.8358 H       1  ZINC000252489163    0.0800
     43 H43       -11.3837   -2.9282   59.9601 H       1  ZINC000252489163    0.1100
     44 H44       -12.8582    0.2210   62.2487 H       1  ZINC000252489163    0.1800
     45 H45       -10.7480    1.7836   65.6086 H       1  ZINC000252489163    0.1300
@<TRIPOS>BOND
     1     1     2    1
     2     1    27    1
     3     1    28    1
     4     1    29    1
     5     2    26   ar
     6     2     3   ar
     7     3     4   ar
     8     3    30    1
     9     4     5    1
    10     4    20   ar
    11     5     6   am
    12     5    31    1
    13     6     7    2
    14     6     8   am
    15     8    19    1
    16     8     9    1
    17     9    10    1
    18     9    32    1
    19     9    33    1
    20    10    11    1
    21    10    34    1
    22    10    35    1
    23    11    12    1
    24    11    36    1
    25    11    37    1
    26    12    13    1
    27    12    14    1
    28    12    19    1
    29    14    15   am
    30    14    38    1
    31    15    16    1
    32    15    17    2
    33    15    18    2
    34    16    39    1
    35    16    40    1
    36    16    41    1
    37    19    42    1
    38    19    43    1
    39    20    21   ar
    40    20    44    1
    41    21    22    1
    42    21    26   ar
    43    22    23    1
    44    22    24    1
    45    22    25    1
    46    26    45    1
@<TRIPOS>SUBSTRUCTURE
     1 ZINC000252489163        1 TEMP              0 ****  ****    0 ROOT


##########                                Name:    ZINC000866034032
##########                DOCK_Rotatable_Bonds:                   4
##########                         Heavy_Atoms:                  23
##########                    Molecular_Weight:             383.242
##########                DOCK_Rotatable_Bonds:                   4
##########                       Formal_Charge:           0.0199999
##########                     HBond_Acceptors:                   6
##########                        HBond_Donors:                   1
##########                         Heavy_Atoms:                  23
##########                          Grid_Score:          -29.679609
##########                     Grid_vdw_energy:          -30.186850
##########                      Grid_es_energy:            0.507241
##########           Internal_energy_repulsive:           12.436577

@<TRIPOS>MOLECULE
ZINC000866034032
 42 44 1 0 0
SMALL
USER_CHARGES


@<TRIPOS>ATOM
      1 C1          0.0119    4.5940   45.0545 C.3     1  ZINC000866034032   -0.1300
      2 C2         -0.1370    3.2722   45.8106 C.3     1  ZINC000866034032   -0.0800
      3 C3          0.9577    3.0625   46.8587 C.3     1  ZINC000866034032   -0.1300
      4 C4         -1.5563    3.0282   46.3460 C.3     1  ZINC000866034032    0.1400
      5 H5         -2.1268    3.9440   46.5003 H       1  ZINC000866034032    0.1100
      6 N6         -1.5985    2.1315   47.5038 N.am    1  ZINC000866034032   -0.7000
      7 C7         -1.7887    2.6349   48.7394 C.2     1  ZINC000866034032    0.5100
      8 O8         -1.9234    3.8304   48.8931 O.2     1  ZINC000866034032   -0.5300
      9 C9         -1.8339    1.7125   49.9302 C.3     1  ZINC000866034032   -0.1100
     10 C10        -2.9769    2.1081   50.8292 C.ar    1  ZINC000866034032   -0.0500
     11 C11        -2.7756    3.0336   51.8360 C.ar    1  ZINC000866034032   -0.0500
     12 C12        -3.8236    3.3966   52.6611 C.ar    1  ZINC000866034032   -0.0900
     13 C13        -5.0739    2.8339   52.4788 C.ar    1  ZINC000866034032   -0.0500
     14 Br14       -6.5080    3.3305   53.6068 Br      1  ZINC000866034032    0.0200
     15 C15        -5.2749    1.9080   51.4707 C.ar    1  ZINC000866034032   -0.0200
     16 N16        -6.6127    1.3059   51.2749 N.pl3   1  ZINC000866034032    0.0200
     17 O17        -6.7897    0.4908   50.3873 O.2     1  ZINC000866034032   -0.1600
     18 O18        -7.5367    1.6256   52.0013 O.2     1  ZINC000866034032   -0.1300
     19 C19        -4.2279    1.5497   50.6430 C.ar    1  ZINC000866034032   -0.0300
     20 C20        -1.8682    2.3277   45.0134 C.3     1  ZINC000866034032   -0.1500
     21 H21        -2.3268    2.9425   44.2391 H       1  ZINC000866034032    0.1200
     22 C22        -2.4938    0.9279   45.2032 C.3     1  ZINC000866034032   -0.1400
     23 C23        -1.2849   -0.0327   45.1747 C.3     1  ZINC000866034032    0.0500
     24 O24        -0.1579    0.7808   45.5663 O.3     1  ZINC000866034032   -0.3600
     25 C25        -0.3461    2.0600   44.8912 C.3     1  ZINC000866034032    0.0600
     26 H26         0.0869    2.1200   43.8927 H       1  ZINC000866034032    0.1000
     27 H27        -0.6961    4.6205   44.2262 H       1  ZINC000866034032    0.0600
     28 H28        -0.1893    5.4243   45.7313 H       1  ZINC000866034032    0.0700
     29 H29         1.0273    4.6788   44.6673 H       1  ZINC000866034032    0.0700
     30 H30         0.8149    3.7659   47.6790 H       1  ZINC000866034032    0.0600
     31 H31         0.9043    2.0430   47.2409 H       1  ZINC000866034032    0.0600
     32 H32         1.9338    3.2290   46.4030 H       1  ZINC000866034032    0.0600
     33 H33        -1.4896    1.1755   47.3811 H       1  ZINC000866034032    0.4100
     34 H34        -1.9775    0.6868   49.5901 H       1  ZINC000866034032    0.1100
     35 H35        -0.8963    1.7845   50.4815 H       1  ZINC000866034032    0.1200
     36 H36        -1.7992    3.4729   51.9782 H       1  ZINC000866034032    0.1500
     37 H37        -3.6662    4.1191   53.4482 H       1  ZINC000866034032    0.1600
     38 H38        -4.3849    0.8272   49.8557 H       1  ZINC000866034032    0.1600
     39 H39        -3.0078    0.8664   46.1624 H       1  ZINC000866034032    0.0800
     40 H40        -3.1798    0.7026   44.3865 H       1  ZINC000866034032    0.0800
     41 H41        -1.4301   -0.8468   45.8848 H       1  ZINC000866034032    0.0900
     42 H42        -1.1370   -0.4269   44.1693 H       1  ZINC000866034032    0.0600
@<TRIPOS>BOND
     1     1     2    1
     2     1    27    1
     3     1    28    1
     4     1    29    1
     5     2    25    1
     6     2     3    1
     7     2     4    1
     8     3    30    1
     9     3    31    1
    10     3    32    1
    11     4     5    1
    12     4     6    1
    13     4    20    1
    14     6     7   am
    15     6    33    1
    16     7     8    2
    17     7     9    1
    18     9    10    1
    19     9    34    1
    20     9    35    1
    21    10    19   ar
    22    10    11   ar
    23    11    12   ar
    24    11    36    1
    25    12    13   ar
    26    12    37    1
    27    13    14    1
    28    13    15   ar
    29    15    16    1
    30    15    19   ar
    31    16    17    2
    32    16    18    2
    33    19    38    1
    34    20    21    1
    35    20    25    1
    36    20    22    1
    37    22    23    1
    38    22    39    1
    39    22    40    1
    40    23    24    1
    41    23    41    1
    42    23    42    1
    43    24    25    1
    44    25    26    1
@<TRIPOS>SUBSTRUCTURE
     1 ZINC000866034032        1 TEMP              0 ****  ****    0 ROOT


##########                                Name:    ZINC000587344575
##########                DOCK_Rotatable_Bonds:                   7
##########                         Heavy_Atoms:                  30
##########                    Molecular_Weight:             408.475
##########                DOCK_Rotatable_Bonds:                   7
##########                       Formal_Charge:          -0.0100002
##########                     HBond_Acceptors:                   7
##########                        HBond_Donors:                   2
##########                         Heavy_Atoms:                  30
##########                          Grid_Score:          -29.659975
##########                     Grid_vdw_energy:          -28.063322
##########                      Grid_es_energy:           -1.596653
##########           Internal_energy_repulsive:           30.645494

@<TRIPOS>MOLECULE
ZINC000587344575
 55 57 1 0 0
SMALL
USER_CHARGES


@<TRIPOS>ATOM
      1 C1        -11.6069   -3.1091   53.5748 C.3     1  ZINC000587344575   -0.1200
      2 C2        -11.0985   -2.0664   54.5368 C.ar    1  ZINC000587344575    0.0000
      3 C3        -10.2238   -1.0964   54.1027 C.ar    1  ZINC000587344575   -0.1600
      4 C4         -9.7543   -0.1330   54.9902 C.ar    1  ZINC000587344575    0.1800
      5 N5         -8.8685    0.8485   54.5469 N.am    1  ZINC000587344575   -0.6700
      6 C6         -9.3277    1.9028   53.8439 C.2     1  ZINC000587344575    0.5200
      7 O7        -10.5112    1.9978   53.5969 O.2     1  ZINC000587344575   -0.5000
      8 C8         -8.3704    2.9636   53.3648 C.3     1  ZINC000587344575   -0.1200
      9 H9         -8.3058    3.7711   54.0940 H       1  ZINC000587344575    0.1100
     10 C10        -8.8228    3.5142   51.9929 C.3     1  ZINC000587344575   -0.1200
     11 C11        -7.4842    3.6952   51.2338 C.3     1  ZINC000587344575    0.0400
     12 N12        -6.6821    2.5258   51.6757 N.3     1  ZINC000587344575   -0.4800
     13 C13        -5.3219    2.7464   51.4691 C.ar    1  ZINC000587344575    0.0700
     14 C14        -4.6920    3.8219   52.0858 C.ar    1  ZINC000587344575   -0.1200
     15 C15        -3.3478    4.0436   51.8837 C.ar    1  ZINC000587344575   -0.0700
     16 C16        -2.6154    3.1863   51.0580 C.ar    1  ZINC000587344575    0.0000
     17 C17        -1.2175    3.4144   50.8467 C.1     1  ZINC000587344575    0.2500
     18 N18        -0.1087    3.5953   50.6789 N.1     1  ZINC000587344575   -0.4000
     19 C19        -3.2504    2.1049   50.4388 C.ar    1  ZINC000587344575   -0.1000
     20 C20        -4.5945    1.8855   50.6493 C.ar    1  ZINC000587344575    0.1300
     21 F21        -5.2095    0.8411   50.0525 F       1  ZINC000587344575   -0.1200
     22 C22        -6.9780    2.3545   53.1169 C.3     1  ZINC000587344575    0.0500
     23 C23       -10.1671   -0.1465   56.3186 C.ar    1  ZINC000587344575   -0.1400
     24 C24       -11.0420   -1.1139   56.7595 C.ar    1  ZINC000587344575   -0.0600
     25 C25       -11.5194   -2.0797   55.8696 C.ar    1  ZINC000587344575   -0.1600
     26 C26       -12.4578   -3.1180   56.3386 C.2     1  ZINC000587344575    0.5600
     27 O27       -12.0835   -3.9642   57.1272 O.2     1  ZINC000587344575   -0.5300
     28 N28       -13.7296   -3.1280   55.8926 N.am    1  ZINC000587344575   -0.7200
     29 C29       -14.6605   -4.1597   56.3568 C.3     1  ZINC000587344575    0.1400
     30 C30       -14.1111   -5.5416   55.9971 C.3     1  ZINC000587344575   -0.1600
     31 C31       -14.8227   -4.0546   57.8746 C.3     1  ZINC000587344575   -0.1600
     32 H32       -12.5806   -2.8052   53.1908 H       1  ZINC000587344575    0.0800
     33 H33       -10.9057   -3.2119   52.7467 H       1  ZINC000587344575    0.0600
     34 H34       -11.7019   -4.0643   54.0912 H       1  ZINC000587344575    0.1000
     35 H35        -9.9011   -1.0833   53.0720 H       1  ZINC000587344575    0.1300
     36 H36        -7.9220    0.7725   54.7444 H       1  ZINC000587344575    0.4100
     37 H37        -9.4626    2.7957   51.4807 H       1  ZINC000587344575    0.0900
     38 H38        -9.3321    4.4708   52.1101 H       1  ZINC000587344575    0.0900
     39 H39        -7.6460    3.6658   50.1563 H       1  ZINC000587344575    0.0900
     40 H40        -6.9994    4.6268   51.5258 H       1  ZINC000587344575    0.0600
     41 H41        -5.2578    4.4846   52.7240 H       1  ZINC000587344575    0.1400
     42 H42        -2.8600    4.8796   52.3627 H       1  ZINC000587344575    0.1400
     43 H43        -2.6874    1.4404   49.8003 H       1  ZINC000587344575    0.1500
     44 H44        -6.2303    2.8764   53.7142 H       1  ZINC000587344575    0.0600
     45 H45        -6.9860    1.2945   53.3709 H       1  ZINC000587344575    0.1100
     46 H46        -9.8005    0.6025   57.0049 H       1  ZINC000587344575    0.1400
     47 H47       -11.3620   -1.1238   57.7909 H       1  ZINC000587344575    0.1300
     48 H48       -14.0286   -2.4522   55.2643 H       1  ZINC000587344575    0.4000
     49 H49       -15.6289   -4.0176   55.8772 H       1  ZINC000587344575    0.0900
     50 H50       -13.1426   -5.6836   56.4767 H       1  ZINC000587344575    0.0600
     51 H51       -14.8036   -6.3091   56.3424 H       1  ZINC000587344575    0.0700
     52 H52       -13.9955   -5.6164   54.9158 H       1  ZINC000587344575    0.0600
     53 H53       -13.8542   -4.1966   58.3542 H       1  ZINC000587344575    0.0600
     54 H54       -15.2140   -3.0701   58.1308 H       1  ZINC000587344575    0.0600
     55 H55       -15.5152   -4.8221   58.2199 H       1  ZINC000587344575    0.0700
@<TRIPOS>BOND
     1     1     2    1
     2     1    32    1
     3     1    33    1
     4     1    34    1
     5     2    25   ar
     6     2     3   ar
     7     3     4   ar
     8     3    35    1
     9     4     5    1
    10     4    23   ar
    11     5     6   am
    12     5    36    1
    13     6     7    2
    14     6     8    1
    15     8     9    1
    16     8    22    1
    17     8    10    1
    18    10    11    1
    19    10    37    1
    20    10    38    1
    21    11    12    1
    22    11    39    1
    23    11    40    1
    24    12    13    1
    25    12    22    1
    26    13    20   ar
    27    13    14   ar
    28    14    15   ar
    29    14    41    1
    30    15    16   ar
    31    15    42    1
    32    16    17    1
    33    16    19   ar
    34    17    18    3
    35    19    20   ar
    36    19    43    1
    37    20    21    1
    38    22    44    1
    39    22    45    1
    40    23    24   ar
    41    23    46    1
    42    24    25   ar
    43    24    47    1
    44    25    26    1
    45    26    27    2
    46    26    28   am
    47    28    29    1
    48    28    48    1
    49    29    30    1
    50    29    31    1
    51    29    49    1
    52    30    50    1
    53    30    51    1
    54    30    52    1
    55    31    53    1
    56    31    54    1
    57    31    55    1
@<TRIPOS>SUBSTRUCTURE
     1 ZINC000587344575        1 TEMP              0 ****  ****    0 ROOT


##########                                Name:    ZINC000986832075
##########                DOCK_Rotatable_Bonds:                   7
##########                         Heavy_Atoms:                  25
##########                    Molecular_Weight:             347.433
##########                DOCK_Rotatable_Bonds:                   7
##########                       Formal_Charge:          -0.0200006
##########                     HBond_Acceptors:                   6
##########                        HBond_Donors:                   1
##########                         Heavy_Atoms:                  25
##########                          Grid_Score:          -29.634438
##########                     Grid_vdw_energy:          -29.687752
##########                      Grid_es_energy:            0.053313
##########           Internal_energy_repulsive:           31.574581

@<TRIPOS>MOLECULE
ZINC000986832075
 51 53 1 0 0
SMALL
USER_CHARGES


@<TRIPOS>ATOM
      1 C1        -13.9450   -3.2786   54.7026 C.3     1  ZINC000986832075   -0.1700
      2 C2        -13.0452   -2.0610   54.9232 C.3     1  ZINC000986832075    0.1500
      3 H3        -13.6605   -1.1917   55.1551 H       1  ZINC000986832075    0.0900
      4 N4        -12.1318   -2.3242   56.0379 N.am    1  ZINC000986832075   -0.7200
      5 C5        -12.5560   -2.1690   57.3077 C.2     1  ZINC000986832075    0.5600
      6 O6        -13.6966   -1.8120   57.5280 O.2     1  ZINC000986832075   -0.5100
      7 C7        -11.6327   -2.4332   58.4338 C.ar    1  ZINC000986832075   -0.1300
      8 C8        -10.4188   -3.0965   58.2281 C.ar    1  ZINC000986832075   -0.1100
      9 C9         -9.5872   -3.3224   59.3071 C.ar    1  ZINC000986832075    0.0900
     10 N10        -9.9230   -2.9232   60.5179 N.ar    1  ZINC000986832075   -0.4400
     11 C11       -11.0558   -2.2951   60.7588 C.ar    1  ZINC000986832075    0.0700
     12 C12       -11.9475   -2.0207   59.7351 C.ar    1  ZINC000986832075    0.1100
     13 F13       -13.1072   -1.3762   59.9894 F       1  ZINC000986832075   -0.1000
     14 C14       -12.2354   -1.7885   53.6538 C.3     1  ZINC000986832075   -0.1000
     15 C15       -11.7045   -0.3536   53.6860 C.3     1  ZINC000986832075   -0.1300
     16 C16       -10.9236   -0.0732   52.3982 C.3     1  ZINC000986832075    0.1100
     17 N17        -9.8827   -1.0985   52.2438 N.am    1  ZINC000986832075   -0.6100
     18 C18        -8.5940   -0.7470   52.0642 C.2     1  ZINC000986832075    0.5200
     19 O19        -7.7440   -1.6028   51.9380 O.2     1  ZINC000986832075   -0.5300
     20 C20        -8.2093    0.7094   52.0202 C.3     1  ZINC000986832075   -0.0800
     21 H21        -8.9479    1.2630   51.4406 H       1  ZINC000986832075    0.0900
     22 C22        -6.8341    0.8541   51.3652 C.3     1  ZINC000986832075   -0.1400
     23 C23        -8.1570    1.2663   53.4444 C.3     1  ZINC000986832075   -0.1400
     24 C24        -7.5154    2.6412   53.6421 C.3     1  ZINC000986832075   -0.1800
     25 C25        -9.0323    2.4807   53.7605 C.3     1  ZINC000986832075   -0.1700
     26 C26       -10.2732   -2.5142   52.2892 C.3     1  ZINC000986832075    0.1000
     27 C27       -11.0612   -2.7671   53.5783 C.3     1  ZINC000986832075   -0.1300
     28 H28       -14.5218   -3.4726   55.6069 H       1  ZINC000986832075    0.0600
     29 H29       -14.6245   -3.0827   53.8732 H       1  ZINC000986832075    0.0700
     30 H30       -13.3296   -4.1479   54.4706 H       1  ZINC000986832075    0.0600
     31 H31       -11.2217   -2.6102   55.8622 H       1  ZINC000986832075    0.4000
     32 H32       -10.1361   -3.4275   57.2397 H       1  ZINC000986832075    0.1500
     33 H33        -8.6480   -3.8339   59.1569 H       1  ZINC000986832075    0.1700
     34 H34       -11.2902   -1.9865   61.7669 H       1  ZINC000986832075    0.1800
     35 H35       -12.8742   -1.9197   52.7804 H       1  ZINC000986832075    0.0800
     36 H36       -12.5402    0.3420   53.7635 H       1  ZINC000986832075    0.0700
     37 H37       -11.0458   -0.2286   54.5454 H       1  ZINC000986832075    0.0800
     38 H38       -11.6010   -0.1089   51.5450 H       1  ZINC000986832075    0.0700
     39 H39       -10.4604    0.9116   52.4587 H       1  ZINC000986832075    0.0900
     40 H40        -6.1129    0.2300   51.8928 H       1  ZINC000986832075    0.0600
     41 H41        -6.8931    0.5397   50.3233 H       1  ZINC000986832075    0.0600
     42 H42        -6.5168    1.8959   51.4131 H       1  ZINC000986832075    0.0700
     43 H43        -8.0174    0.5273   54.2333 H       1  ZINC000986832075    0.1100
     44 H44        -6.9535    2.8068   54.5613 H       1  ZINC000986832075    0.1000
     45 H45        -7.1305    3.1489   52.7577 H       1  ZINC000986832075    0.0900
     46 H46        -9.6454    2.8828   52.9541 H       1  ZINC000986832075    0.0900
     47 H47        -9.4684    2.5407   54.7577 H       1  ZINC000986832075    0.1000
     48 H48       -10.8975   -2.7489   51.4272 H       1  ZINC000986832075    0.0700
     49 H49        -9.3806   -3.1400   52.2779 H       1  ZINC000986832075    0.0900
     50 H50       -10.4086   -2.6194   54.4387 H       1  ZINC000986832075    0.0800
     51 H51       -11.4392   -3.7895   53.5790 H       1  ZINC000986832075    0.0800
@<TRIPOS>BOND
     1     1     2    1
     2     1    28    1
     3     1    29    1
     4     1    30    1
     5     2     3    1
     6     2     4    1
     7     2    14    1
     8     4     5   am
     9     4    31    1
    10     5     6    2
    11     5     7    1
    12     7    12   ar
    13     7     8   ar
    14     8     9   ar
    15     8    32    1
    16     9    10   ar
    17     9    33    1
    18    10    11   ar
    19    11    12   ar
    20    11    34    1
    21    12    13    1
    22    14    27    1
    23    14    15    1
    24    14    35    1
    25    15    16    1
    26    15    36    1
    27    15    37    1
    28    16    17    1
    29    16    38    1
    30    16    39    1
    31    17    18   am
    32    17    26    1
    33    18    19    2
    34    18    20    1
    35    20    21    1
    36    20    22    1
    37    20    23    1
    38    22    40    1
    39    22    41    1
    40    22    42    1
    41    23    25    1
    42    23    24    1
    43    23    43    1
    44    24    25    1
    45    24    44    1
    46    24    45    1
    47    25    46    1
    48    25    47    1
    49    26    27    1
    50    26    48    1
    51    26    49    1
    52    27    50    1
    53    27    51    1
@<TRIPOS>SUBSTRUCTURE
     1 ZINC000986832075        1 TEMP              0 ****  ****    0 ROOT


##########                                Name:    ZINC000543429378
##########                DOCK_Rotatable_Bonds:                   6
##########                         Heavy_Atoms:                  29
##########                    Molecular_Weight:             406.408
##########                DOCK_Rotatable_Bonds:                   6
##########                       Formal_Charge:           0.0100003
##########                     HBond_Acceptors:                   9
##########                        HBond_Donors:                   1
##########                         Heavy_Atoms:                  29
##########                          Grid_Score:          -29.601366
##########                     Grid_vdw_energy:          -28.709806
##########                      Grid_es_energy:           -0.891560
##########           Internal_energy_repulsive:           35.320068

@<TRIPOS>MOLECULE
ZINC000543429378
 50 53 1 0 0
SMALL
USER_CHARGES


@<TRIPOS>ATOM
      1 O1        -11.7565   -2.3721   61.0318 O.2     1  ZINC000543429378   -0.5100
      2 C2        -11.6584   -1.4094   60.3007 C.2     1  ZINC000543429378    0.5200
      3 N3        -12.2871   -1.4016   59.1085 N.am    1  ZINC000543429378   -0.6600
      4 C4        -13.0483   -2.5066   58.7119 C.ar    1  ZINC000543429378    0.1900
      5 C5        -14.1254   -2.9221   59.4839 C.ar    1  ZINC000543429378   -0.1600
      6 C6        -14.8774   -4.0130   59.0919 C.ar    1  ZINC000543429378   -0.0600
      7 C7        -14.5601   -4.6932   57.9319 C.ar    1  ZINC000543429378   -0.2100
      8 C8        -13.4847   -4.2822   57.1563 C.ar    1  ZINC000543429378    0.1300
      9 O9        -13.1737   -4.9523   56.0156 O.3     1  ZINC000543429378   -0.3100
     10 C10       -12.6099   -4.1883   54.9477 C.3     1  ZINC000543429378    0.6000
     11 F11       -11.2432   -3.9996   55.1801 F       1  ZINC000543429378   -0.1600
     12 F12       -12.7874   -4.8726   53.7404 F       1  ZINC000543429378   -0.1300
     13 F13       -13.2469   -2.9449   54.8769 F       1  ZINC000543429378   -0.1600
     14 C14       -12.7315   -3.1852   57.5433 C.ar    1  ZINC000543429378   -0.1300
     15 C15       -10.8385   -0.2193   60.7279 C.3     1  ZINC000543429378    0.0700
     16 H16       -10.4714    0.3129   59.8505 H       1  ZINC000543429378    0.1200
     17 C17        -9.6428   -0.6866   61.6025 C.3     1  ZINC000543429378   -0.1200
     18 C18        -9.5684    0.4283   62.6570 C.3     1  ZINC000543429378   -0.1000
     19 H19        -9.0829    1.3172   62.2542 H       1  ZINC000543429378    0.0900
     20 C20        -8.9498    0.0247   63.9846 C.3     1  ZINC000543429378   -0.1100
     21 C21        -9.0827    1.2259   64.9343 C.3     1  ZINC000543429378   -0.1200
     22 C22       -10.5404    1.6408   65.1104 C.3     1  ZINC000543429378   -0.1100
     23 C23       -11.2115    1.9193   63.7551 C.3     1  ZINC000543429378   -0.0900
     24 C24       -11.0811    0.6767   62.9054 C.3     1  ZINC000543429378    0.0700
     25 H25       -11.4797   -0.1770   63.4534 H       1  ZINC000543429378    0.0900
     26 N26       -11.6642    0.6909   61.5639 N.3     1  ZINC000543429378   -0.4300
     27 C27       -12.9809    0.2652   61.5907 C.ar    1  ZINC000543429378    0.5000
     28 N28       -13.8057    0.6533   60.6291 N.ar    1  ZINC000543429378   -0.5300
     29 C29       -15.0699    0.2641   60.6248 C.ar    1  ZINC000543429378    0.1800
     30 C30       -15.5275   -0.5589   61.6419 C.ar    1  ZINC000543429378   -0.2500
     31 C31       -14.6379   -0.9458   62.6319 C.ar    1  ZINC000543429378    0.1800
     32 N32       -13.3852   -0.5250   62.5743 N.ar    1  ZINC000543429378   -0.5300
     33 H33       -12.2118   -0.6300   58.5256 H       1  ZINC000543429378    0.4200
     34 H34       -14.3750   -2.3926   60.3915 H       1  ZINC000543429378    0.1400
     35 H35       -15.7145   -4.3348   59.6936 H       1  ZINC000543429378    0.1400
     36 H36       -15.1492   -5.5459   57.6284 H       1  ZINC000543429378    0.1400
     37 H37       -11.8945   -2.8640   56.9410 H       1  ZINC000543429378    0.1500
     38 H38        -9.8530   -1.6497   62.0677 H       1  ZINC000543429378    0.0800
     39 H39        -8.7248   -0.7305   61.0163 H       1  ZINC000543429378    0.0900
     40 H40        -9.4811   -0.8337   64.3956 H       1  ZINC000543429378    0.0700
     41 H41        -7.8974   -0.2219   63.8437 H       1  ZINC000543429378    0.0700
     42 H42        -8.6685    0.9589   65.9066 H       1  ZINC000543429378    0.0600
     43 H43        -8.5200    2.0659   64.5272 H       1  ZINC000543429378    0.0600
     44 H44       -11.0800    0.8412   65.6179 H       1  ZINC000543429378    0.0600
     45 H45       -10.5833    2.5423   65.7216 H       1  ZINC000543429378    0.0700
     46 H46       -12.2646    2.1571   63.9048 H       1  ZINC000543429378    0.0700
     47 H47       -10.7104    2.7494   63.2569 H       1  ZINC000543429378    0.0700
     48 H48       -15.7375    0.5840   59.8385 H       1  ZINC000543429378    0.1600
     49 H49       -16.5549   -0.8910   61.6628 H       1  ZINC000543429378    0.1400
     50 H50       -14.9628   -1.5863   63.4386 H       1  ZINC000543429378    0.1600
@<TRIPOS>BOND
     1     1     2    2
     2     2     3   am
     3     2    15    1
     4     3     4    1
     5     3    33    1
     6     4    14   ar
     7     4     5   ar
     8     5     6   ar
     9     5    34    1
    10     6     7   ar
    11     6    35    1
    12     7     8   ar
    13     7    36    1
    14     8     9    1
    15     8    14   ar
    16     9    10    1
    17    10    11    1
    18    10    12    1
    19    10    13    1
    20    14    37    1
    21    15    16    1
    22    15    26    1
    23    15    17    1
    24    17    18    1
    25    17    38    1
    26    17    39    1
    27    18    19    1
    28    18    24    1
    29    18    20    1
    30    20    21    1
    31    20    40    1
    32    20    41    1
    33    21    22    1
    34    21    42    1
    35    21    43    1
    36    22    23    1
    37    22    44    1
    38    22    45    1
    39    23    24    1
    40    23    46    1
    41    23    47    1
    42    24    25    1
    43    24    26    1
    44    26    27    1
    45    27    32   ar
    46    27    28   ar
    47    28    29   ar
    48    29    30   ar
    49    29    48    1
    50    30    31   ar
    51    30    49    1
    52    31    32   ar
    53    31    50    1
@<TRIPOS>SUBSTRUCTURE
     1 ZINC000543429378        1 TEMP              0 ****  ****    0 ROOT


##########                                Name:    ZINC000098105561
##########                DOCK_Rotatable_Bonds:                   5
##########                         Heavy_Atoms:                  25
##########                    Molecular_Weight:             368.336
##########                DOCK_Rotatable_Bonds:                   5
##########                       Formal_Charge:         2.98023e-08
##########                     HBond_Acceptors:                   9
##########                        HBond_Donors:                   0
##########                         Heavy_Atoms:                  25
##########                          Grid_Score:          -29.596151
##########                     Grid_vdw_energy:          -28.611809
##########                      Grid_es_energy:           -0.984343
##########           Internal_energy_repulsive:           10.349556

@<TRIPOS>MOLECULE
ZINC000098105561
 36 38 1 0 0
SMALL
USER_CHARGES


@<TRIPOS>ATOM
      1 C1        -15.3398   -3.7790   59.2255 C.3     1  ZINC000098105561   -0.0800
      2 C2        -14.7768   -3.0205   58.0513 C.2     1  ZINC000098105561    0.0900
      3 C3        -14.9830   -1.7139   57.8706 C.2     1  ZINC000098105561   -0.2700
      4 S4        -14.1570   -1.2302   56.3915 S.3     1  ZINC000098105561    0.1600
      5 C5        -13.6134   -2.8343   56.1584 C.2     1  ZINC000098105561    0.2500
      6 N6        -12.8290   -3.2613   55.0960 N.am    1  ZINC000098105561   -0.5200
      7 C7        -13.4501   -3.5770   53.8073 C.3     1  ZINC000098105561    0.0500
      8 C8        -13.3183   -2.3752   52.8697 C.3     1  ZINC000098105561    0.4400
      9 F9        -12.0209   -2.3310   52.3477 F       1  ZINC000098105561   -0.1700
     10 F10       -14.2381   -2.4974   51.8227 F       1  ZINC000098105561   -0.1700
     11 F11       -13.5750   -1.1983   53.5810 F       1  ZINC000098105561   -0.1700
     12 C12       -11.4958   -3.3857   55.2499 C.2     1  ZINC000098105561    0.5800
     13 O13       -10.8090   -3.7595   54.3197 O.2     1  ZINC000098105561   -0.4100
     14 C14       -10.8677   -3.0666   56.5527 C.2     1  ZINC000098105561    0.0800
     15 C15       -10.6688   -4.0715   57.4411 C.2     1  ZINC000098105561   -0.2000
     16 C16       -10.0588   -3.7419   58.7404 C.2     1  ZINC000098105561    0.4200
     17 O17        -9.6437   -4.6031   59.4957 O.2     1  ZINC000098105561   -0.4300
     18 C18        -9.9801   -2.3051   59.0731 C.ar    1  ZINC000098105561   -0.2200
     19 C19        -9.6665   -1.8716   60.3594 C.ar    1  ZINC000098105561   -0.0300
     20 C20        -9.6103   -0.5207   60.6253 C.ar    1  ZINC000098105561   -0.1400
     21 C21        -9.8650    0.4004   59.6192 C.ar    1  ZINC000098105561   -0.0500
     22 C22       -10.1740   -0.0163   58.3424 C.ar    1  ZINC000098105561   -0.1400
     23 C23       -10.2329   -1.3748   58.0495 C.ar    1  ZINC000098105561    0.1400
     24 O24       -10.5150   -1.7980   56.8014 O.3     1  ZINC000098105561   -0.2300
     25 N25       -14.0358   -3.5927   57.1217 N.2     1  ZINC000098105561   -0.4600
     26 H26       -14.6294   -3.7493   60.0516 H       1  ZINC000098105561    0.0800
     27 H27       -16.2788   -3.3216   59.5371 H       1  ZINC000098105561    0.0800
     28 H28       -15.5183   -4.8149   58.9370 H       1  ZINC000098105561    0.0800
     29 H29       -15.5563   -1.0667   58.5177 H       1  ZINC000098105561    0.1900
     30 H30       -12.9512   -4.4393   53.3650 H       1  ZINC000098105561    0.1700
     31 H31       -14.5051   -3.8057   53.9587 H       1  ZINC000098105561    0.1400
     32 H32       -10.9504   -5.0864   57.2024 H       1  ZINC000098105561    0.1800
     33 H33        -9.4694   -2.5889   61.1424 H       1  ZINC000098105561    0.1400
     34 H34        -9.3675   -0.1776   61.6202 H       1  ZINC000098105561    0.1400
     35 H35        -9.8211    1.4568   59.8395 H       1  ZINC000098105561    0.1400
     36 H36       -10.3701    0.7118   57.5692 H       1  ZINC000098105561    0.1400
@<TRIPOS>BOND
     1     1     2    1
     2     1    26    1
     3     1    27    1
     4     1    28    1
     5     2    25    1
     6     2     3    2
     7     3     4    1
     8     3    29    1
     9     4     5    1
    10     5     6    1
    11     5    25    2
    12     6     7    1
    13     6    12   am
    14     7     8    1
    15     7    30    1
    16     7    31    1
    17     8     9    1
    18     8    10    1
    19     8    11    1
    20    12    13    2
    21    12    14    1
    22    14    24    1
    23    14    15    2
    24    15    16    1
    25    15    32    1
    26    16    17    2
    27    16    18    1
    28    18    23   ar
    29    18    19   ar
    30    19    20   ar
    31    19    33    1
    32    20    21   ar
    33    20    34    1
    34    21    22   ar
    35    21    35    1
    36    22    23   ar
    37    22    36    1
    38    23    24    1
@<TRIPOS>SUBSTRUCTURE
     1 ZINC000098105561        1 TEMP              0 ****  ****    0 ROOT


##########                                Name:    ZINC000179211660
##########                DOCK_Rotatable_Bonds:                   6
##########                         Heavy_Atoms:                  23
##########                    Molecular_Weight:             385.208
##########                DOCK_Rotatable_Bonds:                   6
##########                       Formal_Charge:        -1.78814e-07
##########                     HBond_Acceptors:                   6
##########                        HBond_Donors:                   1
##########                         Heavy_Atoms:                  23
##########                          Grid_Score:          -29.573542
##########                     Grid_vdw_energy:          -29.322512
##########                      Grid_es_energy:           -0.251031
##########           Internal_energy_repulsive:           15.296470

@<TRIPOS>MOLECULE
ZINC000179211660
 38 39 1 0 0
SMALL
USER_CHARGES


@<TRIPOS>ATOM
      1 C1        -15.4978   -1.9162   52.6565 C.3     1  ZINC000179211660    0.0300
      2 O2        -14.3488   -2.7311   52.8971 O.3     1  ZINC000179211660   -0.2700
      3 C3        -13.1331   -2.1601   52.6895 C.ar    1  ZINC000179211660    0.1500
      4 C4        -13.0479   -0.8452   52.2563 C.ar    1  ZINC000179211660   -0.2200
      5 C5        -11.8108   -0.2669   52.0465 C.ar    1  ZINC000179211660   -0.0700
      6 C6        -10.6584   -0.9978   52.2675 C.ar    1  ZINC000179211660   -0.1700
      7 C7        -10.7406   -2.3091   52.6989 C.ar    1  ZINC000179211660   -0.0700
      8 C8        -11.9749   -2.8900   52.9160 C.ar    1  ZINC000179211660   -0.1500
      9 C9        -12.0638   -4.3188   53.3866 C.3     1  ZINC000179211660    0.1800
     10 N10       -12.5891   -4.3508   54.7539 N.am    1  ZINC000179211660   -0.6200
     11 C11       -13.8904   -4.9670   55.0244 C.3     1  ZINC000179211660    0.0700
     12 C12       -11.8752   -3.8133   55.7628 C.2     1  ZINC000179211660    0.7000
     13 O13       -10.7959   -3.3004   55.5381 O.2     1  ZINC000179211660   -0.5300
     14 N14       -12.3578   -3.8442   57.0208 N.am    1  ZINC000179211660   -0.6800
     15 C15       -11.6157   -3.2854   58.0697 C.ar    1  ZINC000179211660    0.1900
     16 C16       -11.9329   -2.0228   58.5495 C.ar    1  ZINC000179211660   -0.1400
     17 C17       -11.1988   -1.4733   59.5859 C.ar    1  ZINC000179211660    0.1500
     18 F18       -11.5071   -0.2439   60.0536 F       1  ZINC000179211660   -0.1100
     19 C19       -10.1485   -2.1830   60.1444 C.ar    1  ZINC000179211660   -0.1300
     20 Br20       -9.1477   -1.4294   61.5610 Br      1  ZINC000179211660   -0.0100
     21 C21        -9.8306   -3.4425   59.6678 C.ar    1  ZINC000179211660   -0.0700
     22 C22       -10.5638   -3.9977   58.6355 C.ar    1  ZINC000179211660    0.0600
     23 F23       -10.2530   -5.2275   58.1707 F       1  ZINC000179211660   -0.1300
     24 H24       -16.4007   -2.4921   52.8596 H       1  ZINC000179211660    0.1000
     25 H25       -15.4682   -1.0444   53.3101 H       1  ZINC000179211660    0.0500
     26 H26       -15.5009   -1.5905   51.6163 H       1  ZINC000179211660    0.0500
     27 H27       -13.9480   -0.2740   52.0829 H       1  ZINC000179211660    0.1300
     28 H28       -11.7440    0.7569   51.7092 H       1  ZINC000179211660    0.1200
     29 H29        -9.6923   -0.5442   52.1025 H       1  ZINC000179211660    0.1200
     30 H30        -9.8389   -2.8782   52.8705 H       1  ZINC000179211660    0.1300
     31 H31       -12.7293   -4.8773   52.7285 H       1  ZINC000179211660    0.0900
     32 H32       -11.0717   -4.7699   53.3680 H       1  ZINC000179211660    0.1000
     33 H33       -13.7520   -6.0250   55.2473 H       1  ZINC000179211660    0.0600
     34 H34       -14.3557   -4.4736   55.8776 H       1  ZINC000179211660    0.0600
     35 H35       -14.5315   -4.8610   54.1492 H       1  ZINC000179211660    0.0800
     36 H36       -13.2188   -4.2533   57.2001 H       1  ZINC000179211660    0.4100
     37 H37       -12.7517   -1.4691   58.1144 H       1  ZINC000179211660    0.1800
     38 H38        -9.0113   -3.9938   60.1050 H       1  ZINC000179211660    0.1600
@<TRIPOS>BOND
     1     1     2    1
     2     1    24    1
     3     1    25    1
     4     1    26    1
     5     2     3    1
     6     3     8   ar
     7     3     4   ar
     8     4     5   ar
     9     4    27    1
    10     5     6   ar
    11     5    28    1
    12     6     7   ar
    13     6    29    1
    14     7     8   ar
    15     7    30    1
    16     8     9    1
    17     9    10    1
    18     9    31    1
    19     9    32    1
    20    10    11    1
    21    10    12   am
    22    11    33    1
    23    11    34    1
    24    11    35    1
    25    12    13    2
    26    12    14   am
    27    14    15    1
    28    14    36    1
    29    15    22   ar
    30    15    16   ar
    31    16    17   ar
    32    16    37    1
    33    17    18    1
    34    17    19   ar
    35    19    20    1
    36    19    21   ar
    37    21    22   ar
    38    21    38    1
    39    22    23    1
@<TRIPOS>SUBSTRUCTURE
     1 ZINC000179211660        1 TEMP              0 ****  ****    0 ROOT


##########                                Name:    ZINC000618094467
##########                DOCK_Rotatable_Bonds:                   5
##########                         Heavy_Atoms:                  27
##########                    Molecular_Weight:             370.492
##########                DOCK_Rotatable_Bonds:                   5
##########                       Formal_Charge:                0.03
##########                     HBond_Acceptors:                   5
##########                        HBond_Donors:                   0
##########                         Heavy_Atoms:                  27
##########                          Grid_Score:          -29.568241
##########                     Grid_vdw_energy:          -28.837229
##########                      Grid_es_energy:           -0.731012
##########           Internal_energy_repulsive:          106.427299

@<TRIPOS>MOLECULE
ZINC000618094467
 57 59 1 0 0
SMALL
USER_CHARGES


@<TRIPOS>ATOM
      1 C1        -16.2448    0.2277   59.3543 C.3     1  ZINC000618094467   -0.1500
      2 C2        -15.1564   -0.4152   58.4925 C.3     1  ZINC000618094467   -0.1000
      3 C3        -14.8891   -1.8385   58.9862 C.3     1  ZINC000618094467   -0.1100
      4 H4        -14.6639   -1.8168   60.0525 H       1  ZINC000618094467    0.1000
      5 C5        -16.1279   -2.7033   58.7442 C.3     1  ZINC000618094467   -0.1500
      6 C6        -13.7174   -2.4184   58.2369 C.2     1  ZINC000618094467    0.5200
      7 O7        -13.8950   -3.2961   57.4189 O.2     1  ZINC000618094467   -0.5000
      8 N8        -12.4720   -1.9618   58.4755 N.am    1  ZINC000618094467   -0.6100
      9 C9        -12.2237   -0.9015   59.4581 C.3     1  ZINC000618094467    0.1400
     10 C10       -11.0295   -1.2633   60.3050 C.ar    1  ZINC000618094467   -0.1000
     11 C11       -10.7882   -0.5047   61.4419 C.ar    1  ZINC000618094467   -0.1100
     12 C12        -9.7052   -0.7808   62.2514 C.ar    1  ZINC000618094467   -0.1200
     13 C13        -8.8539   -1.8201   61.9262 C.ar    1  ZINC000618094467   -0.1100
     14 C14        -9.0951   -2.5774   60.7986 C.ar    1  ZINC000618094467   -0.1200
     15 C15       -10.1882   -2.3055   59.9851 C.ar    1  ZINC000618094467   -0.0600
     16 C16       -10.4038   -3.1913   58.7864 C.3     1  ZINC000618094467   -0.0800
     17 C17       -11.3057   -2.5117   57.7649 C.3     1  ZINC000618094467    0.1200
     18 H18       -10.7636   -1.7030   57.2747 H       1  ZINC000618094467    0.1000
     19 C19       -11.7603   -3.5165   56.7379 C.2     1  ZINC000618094467    0.5500
     20 O20       -12.0172   -4.6532   57.0739 O.2     1  ZINC000618094467   -0.5200
     21 N21       -11.8813   -3.1520   55.4461 N.am    1  ZINC000618094467   -0.6100
     22 C22       -12.3294   -4.1226   54.4392 C.3     1  ZINC000618094467    0.1200
     23 C23       -13.5863   -3.5754   53.7508 C.3     1  ZINC000618094467   -0.1600
     24 H24       -13.8207   -4.1839   52.8773 H       1  ZINC000618094467    0.1100
     25 C25       -14.7627   -3.6033   54.7287 C.3     1  ZINC000618094467   -0.1400
     26 C26       -13.3140   -2.1506   53.3209 C.2     1  ZINC000618094467    0.3700
     27 O27       -13.4999   -1.8028   52.1795 O.2     1  ZINC000618094467   -0.4400
     28 C28       -12.8039   -1.1720   54.3557 C.3     1  ZINC000618094467   -0.1600
     29 H29       -13.5768   -0.9917   55.1028 H       1  ZINC000618094467    0.1100
     30 C30       -12.4266    0.1460   53.6765 C.3     1  ZINC000618094467   -0.1400
     31 C31       -11.5724   -1.7778   55.0299 C.3     1  ZINC000618094467    0.1400
     32 H32       -15.9146    0.2593   60.3927 H       1  ZINC000618094467    0.0500
     33 H33       -16.4352    1.2416   59.0026 H       1  ZINC000618094467    0.0600
     34 H34       -17.1600   -0.3600   59.2819 H       1  ZINC000618094467    0.0600
     35 H35       -15.4867   -0.4469   57.4541 H       1  ZINC000618094467    0.0700
     36 H36       -14.2412    0.1724   58.5649 H       1  ZINC000618094467    0.0700
     37 H37       -16.4347   -2.6149   57.7020 H       1  ZINC000618094467    0.0700
     38 H38       -15.8933   -3.7443   58.9668 H       1  ZINC000618094467    0.0700
     39 H39       -16.9379   -2.3670   59.3914 H       1  ZINC000618094467    0.0700
     40 H40       -12.0287    0.0365   58.9381 H       1  ZINC000618094467    0.0900
     41 H41       -13.0996   -0.7861   60.0965 H       1  ZINC000618094467    0.1100
     42 H42       -11.4527    0.3082   61.6948 H       1  ZINC000618094467    0.1300
     43 H43        -9.5233   -0.1873   63.1351 H       1  ZINC000618094467    0.1300
     44 H44        -8.0020   -2.0386   62.5531 H       1  ZINC000618094467    0.1200
     45 H45        -8.4283   -3.3885   60.5458 H       1  ZINC000618094467    0.1200
     46 H46        -9.4408   -3.4120   58.3258 H       1  ZINC000618094467    0.0900
     47 H47       -10.8684   -4.1234   59.1083 H       1  ZINC000618094467    0.1000
     48 H48       -11.5429   -4.2711   53.6994 H       1  ZINC000618094467    0.0700
     49 H49       -12.5618   -5.0709   54.9238 H       1  ZINC000618094467    0.0900
     50 H50       -14.5650   -2.9199   55.5545 H       1  ZINC000618094467    0.0600
     51 H51       -15.6719   -3.2956   54.2121 H       1  ZINC000618094467    0.0600
     52 H52       -14.8893   -4.6143   55.1160 H       1  ZINC000618094467    0.0700
     53 H53       -13.3042    0.5652   53.1843 H       1  ZINC000618094467    0.0700
     54 H54       -12.0596    0.8485   54.4249 H       1  ZINC000618094467    0.0700
     55 H55       -11.6475   -0.0365   52.9365 H       1  ZINC000618094467    0.0600
     56 H56       -11.3037   -1.1826   55.9027 H       1  ZINC000618094467    0.1100
     57 H57       -10.7408   -1.7936   54.3256 H       1  ZINC000618094467    0.0700
@<TRIPOS>BOND
     1     1     2    1
     2     1    32    1
     3     1    33    1
     4     1    34    1
     5     2     3    1
     6     2    35    1
     7     2    36    1
     8     3     4    1
     9     3     5    1
    10     3     6    1
    11     5    37    1
    12     5    38    1
    13     5    39    1
    14     6     7    2
    15     6     8   am
    16     8    17    1
    17     8     9    1
    18     9    10    1
    19     9    40    1
    20     9    41    1
    21    10    15   ar
    22    10    11   ar
    23    11    12   ar
    24    11    42    1
    25    12    13   ar
    26    12    43    1
    27    13    14   ar
    28    13    44    1
    29    14    15   ar
    30    14    45    1
    31    15    16    1
    32    16    17    1
    33    16    46    1
    34    16    47    1
    35    17    18    1
    36    17    19    1
    37    19    20    2
    38    19    21   am
    39    21    31    1
    40    21    22    1
    41    22    23    1
    42    22    48    1
    43    22    49    1
    44    23    24    1
    45    23    25    1
    46    23    26    1
    47    25    50    1
    48    25    51    1
    49    25    52    1
    50    26    27    2
    51    26    28    1
    52    28    29    1
    53    28    30    1
    54    28    31    1
    55    30    53    1
    56    30    54    1
    57    30    55    1
    58    31    56    1
    59    31    57    1
@<TRIPOS>SUBSTRUCTURE
     1 ZINC000618094467        1 TEMP              0 ****  ****    0 ROOT


##########                                Name:    ZINC000444542200
##########                DOCK_Rotatable_Bonds:                   8
##########                         Heavy_Atoms:                  28
##########                    Molecular_Weight:             404.337
##########                DOCK_Rotatable_Bonds:                   8
##########                       Formal_Charge:           0.0200001
##########                     HBond_Acceptors:                  10
##########                        HBond_Donors:                   1
##########                         Heavy_Atoms:                  28
##########                          Grid_Score:          -29.558363
##########                     Grid_vdw_energy:          -27.739042
##########                      Grid_es_energy:           -1.819320
##########           Internal_energy_repulsive:           18.768677

@<TRIPOS>MOLECULE
ZINC000444542200
 45 46 1 0 0
SMALL
USER_CHARGES


@<TRIPOS>ATOM
      1 C1         -1.7931    2.4900   56.6470 C.3     1  ZINC000444542200    0.0300
      2 O2         -3.0364    2.3495   57.3372 O.3     1  ZINC000444542200   -0.3100
      3 C3         -4.1683    2.5899   56.6245 C.ar    1  ZINC000444542200    0.1800
      4 C4         -5.4016    2.5788   57.2578 C.ar    1  ZINC000444542200   -0.1700
      5 C5         -6.5576    2.8249   56.5297 C.ar    1  ZINC000444542200    0.2300
      6 N6         -7.8026    2.8143   57.1685 N.am    1  ZINC000444542200   -0.5800
      7 C7         -8.3372    4.0474   57.7516 C.3     1  ZINC000444542200    0.0700
      8 C8         -8.5099    1.6698   57.2471 C.2     1  ZINC000444542200    0.7100
      9 O9         -8.0664    0.6464   56.7629 O.2     1  ZINC000444542200   -0.5500
     10 N10        -9.7091    1.6597   57.8623 N.am    1  ZINC000444542200   -0.7300
     11 C11       -10.4772    0.4151   57.9494 C.3     1  ZINC000444542200    0.1700
     12 H12       -10.3578   -0.1509   57.0256 H       1  ZINC000444542200    0.1500
     13 C13        -9.9748   -0.4050   59.1096 C.ar    1  ZINC000444542200   -0.1300
     14 C14        -9.8508    0.1702   60.3602 C.ar    1  ZINC000444542200   -0.0800
     15 C15        -9.3900   -0.5809   61.4255 C.ar    1  ZINC000444542200   -0.0900
     16 C16        -9.0525   -1.9086   61.2423 C.ar    1  ZINC000444542200   -0.1100
     17 C17        -9.1756   -2.4876   59.9911 C.ar    1  ZINC000444542200    0.0800
     18 F18        -8.8459   -3.7854   59.8112 F       1  ZINC000444542200   -0.1200
     19 C19        -9.6431   -1.7359   58.9239 C.ar    1  ZINC000444542200    0.1000
     20 F20        -9.7641   -2.2989   57.7018 F       1  ZINC000444542200   -0.1100
     21 C21       -11.9569    0.7428   58.1592 C.3     1  ZINC000444542200    0.4400
     22 F22       -12.0741    1.9813   58.7991 F       1  ZINC000444542200   -0.1600
     23 F23       -12.6031    0.7954   56.9195 F       1  ZINC000444542200   -0.1700
     24 F24       -12.5464   -0.2487   58.9508 F       1  ZINC000444542200   -0.1800
     25 C25        -6.4778    3.0819   55.1680 C.ar    1  ZINC000444542200   -0.1900
     26 C26        -5.2439    3.0926   54.5359 C.ar    1  ZINC000444542200    0.1800
     27 O27        -5.1657    3.3442   53.2027 O.3     1  ZINC000444542200   -0.3100
     28 C28        -3.8644    3.3196   52.6131 C.3     1  ZINC000444542200    0.0300
     29 C29        -4.0889    2.8519   55.2649 C.ar    1  ZINC000444542200   -0.2900
     30 H30        -1.7633    1.7959   55.8071 H       1  ZINC000444542200    0.0600
     31 H31        -1.6956    3.5111   56.2782 H       1  ZINC000444542200    0.0600
     32 H32        -0.9719    2.2702   57.3293 H       1  ZINC000444542200    0.1000
     33 H33        -5.4629    2.3785   58.3173 H       1  ZINC000444542200    0.1300
     34 H34        -8.9291    4.5758   57.0043 H       1  ZINC000444542200    0.0700
     35 H35        -8.9669    3.8016   58.6067 H       1  ZINC000444542200    0.0700
     36 H36        -7.5132    4.6820   58.0777 H       1  ZINC000444542200    0.0900
     37 H37       -10.0636    2.4763   58.2475 H       1  ZINC000444542200    0.4100
     38 H38       -10.1137    1.2075   60.5053 H       1  ZINC000444542200    0.1400
     39 H39        -9.2934   -0.1296   62.4019 H       1  ZINC000444542200    0.1500
     40 H40        -8.6923   -2.4942   62.0752 H       1  ZINC000444542200    0.1500
     41 H41        -7.3770    3.2730   54.6009 H       1  ZINC000444542200    0.1400
     42 H42        -3.4213    2.3334   52.7515 H       1  ZINC000444542200    0.0600
     43 H43        -3.9440    3.5358   51.5477 H       1  ZINC000444542200    0.1000
     44 H44        -3.2350    4.0709   53.0902 H       1  ZINC000444542200    0.0600
     45 H45        -3.1279    2.8604   54.7720 H       1  ZINC000444542200    0.1400
@<TRIPOS>BOND
     1     1     2    1
     2     1    30    1
     3     1    31    1
     4     1    32    1
     5     2     3    1
     6     3    29   ar
     7     3     4   ar
     8     4     5   ar
     9     4    33    1
    10     5     6    1
    11     5    25   ar
    12     6     7    1
    13     6     8   am
    14     7    34    1
    15     7    35    1
    16     7    36    1
    17     8     9    2
    18     8    10   am
    19    10    11    1
    20    10    37    1
    21    11    12    1
    22    11    13    1
    23    11    21    1
    24    13    19   ar
    25    13    14   ar
    26    14    15   ar
    27    14    38    1
    28    15    16   ar
    29    15    39    1
    30    16    17   ar
    31    16    40    1
    32    17    18    1
    33    17    19   ar
    34    19    20    1
    35    21    22    1
    36    21    23    1
    37    21    24    1
    38    25    26   ar
    39    25    41    1
    40    26    27    1
    41    26    29   ar
    42    27    28    1
    43    28    42    1
    44    28    43    1
    45    28    44    1
    46    29    45    1
@<TRIPOS>SUBSTRUCTURE
     1 ZINC000444542200        1 TEMP              0 ****  ****    0 ROOT


##########                                Name:    ZINC001039666729
##########                DOCK_Rotatable_Bonds:                   3
##########                         Heavy_Atoms:                  25
##########                    Molecular_Weight:             344.376
##########                DOCK_Rotatable_Bonds:                   3
##########                       Formal_Charge:          -0.0199998
##########                     HBond_Acceptors:                  10
##########                        HBond_Donors:                   2
##########                         Heavy_Atoms:                  25
##########                          Grid_Score:          -29.551880
##########                     Grid_vdw_energy:          -28.504759
##########                      Grid_es_energy:           -1.047120
##########           Internal_energy_repulsive:           18.600212

@<TRIPOS>MOLECULE
ZINC001039666729
 45 47 1 0 0
SMALL
USER_CHARGES


@<TRIPOS>ATOM
      1 C1        -11.4164   -0.4385   54.8386 C.3     1  ZINC001039666729   -0.1100
      2 C2        -10.5186   -0.4679   56.0487 C.ar    1  ZINC001039666729    0.2200
      3 C3         -9.3297    0.2443   56.0573 C.ar    1  ZINC001039666729   -0.3000
      4 C4         -8.5331    0.1901   57.1904 C.ar    1  ZINC001039666729    0.1900
      5 N5         -8.9287   -0.5352   58.2233 N.ar    1  ZINC001039666729   -0.5800
      6 C6        -10.0716   -1.2046   58.1827 C.ar    1  ZINC001039666729    0.6000
      7 N7        -10.4554   -1.9533   59.2817 N.pl3   1  ZINC001039666729   -0.5900
      8 C8         -9.4917   -2.5742   60.2411 C.3     1  ZINC001039666729    0.1200
      9 C9         -9.0356   -1.4872   61.2169 C.3     1  ZINC001039666729    0.0900
     10 N10       -10.2190   -1.0138   61.9771 N.am    1  ZINC001039666729   -0.7400
     11 C11       -10.7795    0.1390   61.4936 C.2     1  ZINC001039666729    0.5200
     12 O12       -10.3146    0.6940   60.5206 O.2     1  ZINC001039666729   -0.5200
     13 C13       -11.9873    0.7017   62.1978 C.3     1  ZINC001039666729   -0.1500
     14 C14       -13.1705    0.7413   61.2284 C.3     1  ZINC001039666729    0.1100
     15 N15       -13.3938   -0.6315   60.7056 N.am    1  ZINC001039666729   -0.6100
     16 C16       -14.1860   -1.5271   61.3275 C.2     1  ZINC001039666729    0.6100
     17 O17       -14.3332   -2.6383   60.8572 O.2     1  ZINC001039666729   -0.5200
     18 C18       -14.8759   -1.1581   62.5816 C.2     1  ZINC001039666729   -0.0400
     19 N19       -14.4732   -1.4019   63.8194 N.2     1  ZINC001039666729   -0.2500
     20 N20       -15.3455   -0.9242   64.6344 N.pl3   1  ZINC001039666729   -0.2300
     21 N21       -16.3167   -0.3704   64.0007 N.2     1  ZINC001039666729   -0.2800
     22 C22       -16.0975   -0.4676   62.7114 C.2     1  ZINC001039666729    0.0400
     23 C23       -12.6744   -0.9379   59.4421 C.3     1  ZINC001039666729    0.1100
     24 C24       -11.8798   -2.2255   59.6444 C.3     1  ZINC001039666729    0.1300
     25 N25       -10.8584   -1.1696   57.1174 N.ar    1  ZINC001039666729   -0.5700
     26 H26       -12.1214    0.3878   54.9293 H       1  ZINC001039666729    0.0800
     27 H27       -10.8124   -0.3038   53.9412 H       1  ZINC001039666729    0.0800
     28 H28       -11.9646   -1.3780   54.7700 H       1  ZINC001039666729    0.0800
     29 H29        -9.0303    0.8285   55.1997 H       1  ZINC001039666729    0.1400
     30 H30        -7.6004    0.7332   57.2293 H       1  ZINC001039666729    0.1600
     31 H31        -9.9825   -3.3790   60.7883 H       1  ZINC001039666729    0.0800
     32 H32        -8.6319   -2.9671   59.6982 H       1  ZINC001039666729    0.0900
     33 H33        -8.2973   -1.8983   61.9053 H       1  ZINC001039666729    0.0800
     34 H34        -8.5987   -0.6564   60.6628 H       1  ZINC001039666729    0.1000
     35 H35       -10.5668   -1.4818   62.7524 H       1  ZINC001039666729    0.4100
     36 H36       -12.2374    0.0705   63.0506 H       1  ZINC001039666729    0.0800
     37 H37       -11.7680    1.7113   62.5449 H       1  ZINC001039666729    0.1100
     38 H38       -14.0628    1.0846   61.7520 H       1  ZINC001039666729    0.1100
     39 H39       -12.9462    1.4167   60.4028 H       1  ZINC001039666729    0.0900
     40 H40       -15.2795   -0.9756   65.6008 H       1  ZINC001039666729    0.4700
     41 H41       -16.7267   -0.1009   61.9139 H       1  ZINC001039666729    0.2100
     42 H42       -13.3929   -1.0696   58.6331 H       1  ZINC001039666729    0.0800
     43 H43       -11.9937   -0.1217   59.2000 H       1  ZINC001039666729    0.1200
     44 H44       -12.2770   -3.0092   58.9992 H       1  ZINC001039666729    0.0700
     45 H45       -11.9427   -2.5378   60.6868 H       1  ZINC001039666729    0.0900
@<TRIPOS>BOND
     1     1     2    1
     2     1    26    1
     3     1    27    1
     4     1    28    1
     5     2    25   ar
     6     2     3   ar
     7     3     4   ar
     8     3    29    1
     9     4     5   ar
    10     4    30    1
    11     5     6   ar
    12     6     7    1
    13     6    25   ar
    14     7    24    1
    15     7     8    1
    16     8     9    1
    17     8    31    1
    18     8    32    1
    19     9    10    1
    20     9    33    1
    21     9    34    1
    22    10    11   am
    23    10    35    1
    24    11    12    2
    25    11    13    1
    26    13    14    1
    27    13    36    1
    28    13    37    1
    29    14    15    1
    30    14    38    1
    31    14    39    1
    32    15    16   am
    33    15    23    1
    34    16    17    2
    35    16    18    1
    36    18    22    1
    37    18    19    2
    38    19    20    1
    39    20    21    1
    40    20    40    1
    41    21    22    2
    42    22    41    1
    43    23    24    1
    44    23    42    1
    45    23    43    1
    46    24    44    1
    47    24    45    1
@<TRIPOS>SUBSTRUCTURE
     1 ZINC001039666729        1 TEMP              0 ****  ****    0 ROOT


##########                                Name:    ZINC000277311370
##########                DOCK_Rotatable_Bonds:                   5
##########                         Heavy_Atoms:                  17
##########                    Molecular_Weight:             361.036
##########                DOCK_Rotatable_Bonds:                   5
##########                       Formal_Charge:        -7.45058e-08
##########                     HBond_Acceptors:                   4
##########                        HBond_Donors:                   1
##########                         Heavy_Atoms:                  17
##########                          Grid_Score:          -29.531450
##########                     Grid_vdw_energy:          -29.312471
##########                      Grid_es_energy:           -0.218979
##########           Internal_energy_repulsive:            9.405240

@<TRIPOS>MOLECULE
ZINC000277311370
 28 28 1 0 0
SMALL
USER_CHARGES


@<TRIPOS>ATOM
      1 C1        -11.7735   -0.4614   60.1686 C.3     1  ZINC000277311370   -0.1500
      2 C2        -10.3955   -1.1156   60.0490 C.3     1  ZINC000277311370   -0.1000
      3 C3         -9.7013   -1.0954   61.4122 C.3     1  ZINC000277311370   -0.1600
      4 C4        -10.5573   -2.5631   59.5804 C.3     1  ZINC000277311370    0.2500
      5 H5        -11.2100   -3.0977   60.2706 H       1  ZINC000277311370    0.1400
      6 C6         -9.2393   -3.2176   59.5449 C.1     1  ZINC000277311370    0.1900
      7 N7         -8.2222   -3.7227   59.5174 N.1     1  ZINC000277311370   -0.4100
      8 N8        -11.1469   -2.5792   58.2393 N.am    1  ZINC000277311370   -0.7000
      9 C9        -11.3372   -3.7508   57.6008 C.2     1  ZINC000277311370    0.5700
     10 O10       -11.0211   -4.7940   58.1382 O.2     1  ZINC000277311370   -0.4900
     11 C11       -11.9315   -3.7669   56.2444 C.ar    1  ZINC000277311370    0.1100
     12 N12       -11.2352   -3.3001   55.2150 N.ar    1  ZINC000277311370   -0.4300
     13 C13       -11.7262   -3.2970   53.9942 C.ar    1  ZINC000277311370    0.1300
     14 Br14      -10.6824   -2.6177   52.5712 Br      1  ZINC000277311370    0.0200
     15 C15       -12.9988   -3.7852   53.7368 C.ar    1  ZINC000277311370   -0.1100
     16 C16       -13.7600   -4.2819   54.7822 C.ar    1  ZINC000277311370   -0.0400
     17 C17       -13.2151   -4.2774   56.0582 C.ar    1  ZINC000277311370   -0.0900
     18 Br18      -14.2050   -4.9420   57.5260 Br      1  ZINC000277311370    0.0300
     19 H19       -11.6583    0.5698   60.5025 H       1  ZINC000277311370    0.0700
     20 H20       -12.2680   -0.4758   59.1974 H       1  ZINC000277311370    0.0700
     21 H21       -12.3757   -1.0121   60.8912 H       1  ZINC000277311370    0.0600
     22 H22        -9.7934   -0.5649   59.3264 H       1  ZINC000277311370    0.1000
     23 H23       -10.3035   -1.6462   62.1348 H       1  ZINC000277311370    0.0600
     24 H24        -8.7197   -1.5617   61.3270 H       1  ZINC000277311370    0.0600
     25 H25        -9.5861   -0.0642   61.7461 H       1  ZINC000277311370    0.0700
     26 H26       -11.4003   -1.7466   57.8109 H       1  ZINC000277311370    0.4200
     27 H27       -13.3924   -3.7780   52.7312 H       1  ZINC000277311370    0.1600
     28 H28       -14.7535   -4.6676   54.6073 H       1  ZINC000277311370    0.1700
@<TRIPOS>BOND
     1     1     2    1
     2     1    19    1
     3     1    20    1
     4     1    21    1
     5     2     3    1
     6     2     4    1
     7     2    22    1
     8     3    23    1
     9     3    24    1
    10     3    25    1
    11     4     5    1
    12     4     6    1
    13     4     8    1
    14     6     7    3
    15     8     9   am
    16     8    26    1
    17     9    10    2
    18     9    11    1
    19    11    17   ar
    20    11    12   ar
    21    12    13   ar
    22    13    14    1
    23    13    15   ar
    24    15    16   ar
    25    15    27    1
    26    16    17   ar
    27    16    28    1
    28    17    18    1
@<TRIPOS>SUBSTRUCTURE
     1 ZINC000277311370        1 TEMP              0 ****  ****    0 ROOT


##########                                Name:    ZINC000828026236
##########                DOCK_Rotatable_Bonds:                   1
##########                         Heavy_Atoms:                  19
##########                    Molecular_Weight:             383.045
##########                DOCK_Rotatable_Bonds:                   1
##########                       Formal_Charge:                   0
##########                     HBond_Acceptors:                   5
##########                        HBond_Donors:                   0
##########                         Heavy_Atoms:                  19
##########                          Grid_Score:          -29.529419
##########                     Grid_vdw_energy:          -27.898357
##########                      Grid_es_energy:           -1.631061
##########           Internal_energy_repulsive:            5.203104

@<TRIPOS>MOLECULE
ZINC000828026236
 28 30 1 0 0
SMALL
USER_CHARGES


@<TRIPOS>ATOM
      1 N1        -11.0842    1.9948   59.7627 N.1     1  ZINC000828026236   -0.3800
      2 C2        -10.5987    1.4954   60.6602 C.1     1  ZINC000828026236    0.2600
      3 C3         -9.9868    0.8659   61.7915 C.ar    1  ZINC000828026236   -0.0500
      4 C4         -9.5875    1.6229   62.8985 C.ar    1  ZINC000828026236    0.0100
      5 C5         -9.0004    0.9663   63.9672 C.ar    1  ZINC000828026236   -0.1600
      6 Br6        -8.4411    1.9366   65.4908 Br      1  ZINC000828026236   -0.0100
      7 C7         -8.8268   -0.4054   63.9116 C.ar    1  ZINC000828026236    0.1800
      8 N8         -9.2104   -1.1008   62.8583 N.ar    1  ZINC000828026236   -0.5000
      9 C9         -9.7817   -0.5246   61.8127 C.ar    1  ZINC000828026236    0.3600
     10 N10       -10.1684   -1.2941   60.7288 N.3     1  ZINC000828026236   -0.4900
     11 C11       -11.6244   -1.4941   60.7174 C.3     1  ZINC000828026236    0.0500
     12 C12       -12.0634   -2.0146   59.3428 C.3     1  ZINC000828026236    0.1100
     13 N13       -11.2046   -3.1467   58.9856 N.pl3   1  ZINC000828026236   -0.4400
     14 C14       -11.4020   -4.0957   58.0310 C.2     1  ZINC000828026236   -0.0300
     15 Br15      -12.8790   -4.2277   56.8577 Br      1  ZINC000828026236    0.0200
     16 C16       -10.3377   -4.9251   58.0845 C.2     1  ZINC000828026236    0.0300
     17 N17        -9.5144   -4.4853   59.0514 N.2     1  ZINC000828026236   -0.4700
     18 C18       -10.0235   -3.4215   59.5951 C.2     1  ZINC000828026236    0.2300
     19 C19        -9.4539   -2.5823   60.7140 C.3     1  ZINC000828026236    0.1500
     20 H20        -9.7331    2.6929   62.9189 H       1  ZINC000828026236    0.1600
     21 H21        -8.3686   -0.9159   64.7457 H       1  ZINC000828026236    0.1800
     22 H22       -11.8969   -2.2196   61.4840 H       1  ZINC000828026236    0.0700
     23 H23       -12.1224   -0.5464   60.9224 H       1  ZINC000828026236    0.1100
     24 H24       -13.1023   -2.3412   59.3878 H       1  ZINC000828026236    0.1100
     25 H25       -11.9579   -1.2243   58.5995 H       1  ZINC000828026236    0.1000
     26 H26       -10.1763   -5.7910   57.4596 H       1  ZINC000828026236    0.1800
     27 H27        -8.3911   -2.4118   60.5419 H       1  ZINC000828026236    0.1200
     28 H28        -9.5959   -3.0931   61.6663 H       1  ZINC000828026236    0.1000
@<TRIPOS>BOND
     1     1     2    3
     2     2     3    1
     3     3     9   ar
     4     3     4   ar
     5     4     5   ar
     6     4    20    1
     7     5     6    1
     8     5     7   ar
     9     7     8   ar
    10     7    21    1
    11     8     9   ar
    12     9    10    1
    13    10    19    1
    14    10    11    1
    15    11    12    1
    16    11    22    1
    17    11    23    1
    18    12    13    1
    19    12    24    1
    20    12    25    1
    21    13    18    1
    22    13    14    1
    23    14    15    1
    24    14    16    2
    25    16    17    1
    26    16    26    1
    27    17    18    2
    28    18    19    1
    29    19    27    1
    30    19    28    1
@<TRIPOS>SUBSTRUCTURE
     1 ZINC000828026236        1 TEMP              0 ****  ****    0 ROOT


##########                                Name:    ZINC000653668607
##########                DOCK_Rotatable_Bonds:                   5
##########                         Heavy_Atoms:                  28
##########                    Molecular_Weight:             379.459
##########                DOCK_Rotatable_Bonds:                   5
##########                       Formal_Charge:          0.00999918
##########                     HBond_Acceptors:                   6
##########                        HBond_Donors:                   2
##########                         Heavy_Atoms:                  28
##########                          Grid_Score:          -29.456821
##########                     Grid_vdw_energy:          -29.406059
##########                      Grid_es_energy:           -0.050762
##########           Internal_energy_repulsive:           21.070055

@<TRIPOS>MOLECULE
ZINC000653668607
 53 56 1 0 0
SMALL
USER_CHARGES


@<TRIPOS>ATOM
      1 C1         -3.0068    2.1697   58.2518 C.3     1  ZINC000653668607    0.0300
      2 O2         -2.8608    2.4975   56.8686 O.3     1  ZINC000653668607   -0.3200
      3 C3         -1.6030    2.7602   56.4261 C.ar    1  ZINC000653668607    0.1300
      4 C4         -0.5037    2.3125   57.1441 C.ar    1  ZINC000653668607   -0.2000
      5 C5          0.7682    2.5819   56.6850 C.ar    1  ZINC000653668607   -0.0800
      6 C6          0.9595    3.2976   55.5100 C.ar    1  ZINC000653668607   -0.1000
      7 C7          2.3770    3.5418   55.0617 C.3     1  ZINC000653668607   -0.0800
      8 C8          2.4289    4.6722   54.0360 C.3     1  ZINC000653668607   -0.1200
      9 C9          1.4045    4.3737   52.9349 C.3     1  ZINC000653668607   -0.1100
     10 C10         0.0043    4.5374   53.5223 C.3     1  ZINC000653668607   -0.0600
     11 H11        -0.1769    5.5918   53.7311 H       1  ZINC000653668607    0.1000
     12 C12        -1.0135    4.0464   52.5253 C.2     1  ZINC000653668607    0.5200
     13 O13        -2.0596    4.6434   52.3824 O.2     1  ZINC000653668607   -0.5100
     14 N14        -0.7613    2.9438   51.7923 N.am    1  ZINC000653668607   -0.6700
     15 C15        -1.7062    2.4879   50.8666 C.ar    1  ZINC000653668607    0.1500
     16 C16        -3.0048    2.2135   51.2764 C.ar    1  ZINC000653668607   -0.1100
     17 C17        -3.9385    1.7631   50.3627 C.ar    1  ZINC000653668607   -0.0900
     18 C18        -3.5841    1.5843   49.0396 C.ar    1  ZINC000653668607   -0.1200
     19 C19        -2.2868    1.8565   48.6235 C.ar    1  ZINC000653668607    0.1700
     20 N20        -1.9284    1.6746   47.2830 N.am    1  ZINC000653668607   -0.5800
     21 C21        -2.8089    2.1830   46.2300 C.3     1  ZINC000653668607    0.1100
     22 C22        -1.9684    2.5355   44.9982 C.3     1  ZINC000653668607   -0.1500
     23 C23        -1.1636    1.2981   44.5864 C.3     1  ZINC000653668607    0.1100
     24 N24        -0.3722    0.8379   45.7286 N.am    1  ZINC000653668607   -0.7400
     25 C25        -0.7821    1.0429   46.9893 C.2     1  ZINC000653668607    0.7100
     26 O26        -0.0921    0.6310   47.9018 O.2     1  ZINC000653668607   -0.5800
     27 C27        -1.3487    2.3148   49.5370 C.ar    1  ZINC000653668607   -0.1300
     28 C28        -0.1305    3.7481   54.7983 C.ar    1  ZINC000653668607   -0.0300
     29 C29        -1.4120    3.4713   55.2535 C.ar    1  ZINC000653668607   -0.1500
     30 H30        -2.4245    1.2761   58.4768 H       1  ZINC000653668607    0.0600
     31 H31        -2.6493    2.9995   58.8615 H       1  ZINC000653668607    0.0600
     32 H32        -4.0580    1.9835   58.4721 H       1  ZINC000653668607    0.1000
     33 H33        -0.6435    1.7559   58.0589 H       1  ZINC000653668607    0.1300
     34 H34         1.6238    2.2334   57.2445 H       1  ZINC000653668607    0.1300
     35 H35         2.9855    3.8116   55.9249 H       1  ZINC000653668607    0.0800
     36 H36         2.7741    2.6311   54.6133 H       1  ZINC000653668607    0.0800
     37 H37         2.1834    5.6179   54.5191 H       1  ZINC000653668607    0.0700
     38 H38         3.4275    4.7290   53.6027 H       1  ZINC000653668607    0.0800
     39 H39         1.5399    5.0716   52.1086 H       1  ZINC000653668607    0.0700
     40 H40         1.5359    3.3520   52.5783 H       1  ZINC000653668607    0.0800
     41 H41         0.0753    2.4664   51.9065 H       1  ZINC000653668607    0.4100
     42 H42        -3.2848    2.3520   52.3102 H       1  ZINC000653668607    0.1400
     43 H43        -4.9475    1.5502   50.6839 H       1  ZINC000653668607    0.1300
     44 H44        -4.3162    1.2322   48.3279 H       1  ZINC000653668607    0.1200
     45 H45        -3.5397    1.4186   45.9658 H       1  ZINC000653668607    0.0700
     46 H46        -3.3254    3.0745   46.5859 H       1  ZINC000653668607    0.0900
     47 H47        -2.6244    2.8342   44.1807 H       1  ZINC000653668607    0.1000
     48 H48        -1.2871    3.3510   45.2411 H       1  ZINC000653668607    0.0800
     49 H49        -1.8456    0.5076   44.2735 H       1  ZINC000653668607    0.0700
     50 H50        -0.4983    1.5541   43.7617 H       1  ZINC000653668607    0.0900
     51 H51         0.4675    0.3786   45.5708 H       1  ZINC000653668607    0.4200
     52 H52        -0.3397    2.5273   49.2158 H       1  ZINC000653668607    0.1300
     53 H53        -2.2668    3.8175   54.6914 H       1  ZINC000653668607    0.1200
@<TRIPOS>BOND
     1     1     2    1
     2     1    30    1
     3     1    31    1
     4     1    32    1
     5     2     3    1
     6     3    29   ar
     7     3     4   ar
     8     4     5   ar
     9     4    33    1
    10     5     6   ar
    11     5    34    1
    12     6    28   ar
    13     6     7    1
    14     7     8    1
    15     7    35    1
    16     7    36    1
    17     8     9    1
    18     8    37    1
    19     8    38    1
    20     9    10    1
    21     9    39    1
    22     9    40    1
    23    10    11    1
    24    10    12    1
    25    10    28    1
    26    12    13    2
    27    12    14   am
    28    14    15    1
    29    14    41    1
    30    15    27   ar
    31    15    16   ar
    32    16    17   ar
    33    16    42    1
    34    17    18   ar
    35    17    43    1
    36    18    19   ar
    37    18    44    1
    38    19    20    1
    39    19    27   ar
    40    20    25   am
    41    20    21    1
    42    21    22    1
    43    21    45    1
    44    21    46    1
    45    22    23    1
    46    22    47    1
    47    22    48    1
    48    23    24    1
    49    23    49    1
    50    23    50    1
    51    24    25   am
    52    24    51    1
    53    25    26    2
    54    27    52    1
    55    28    29   ar
    56    29    53    1
@<TRIPOS>SUBSTRUCTURE
     1 ZINC000653668607        1 TEMP              0 ****  ****    0 ROOT


##########                                Name:    ZINC000863208514
##########                DOCK_Rotatable_Bonds:                   6
##########                         Heavy_Atoms:                  19
##########                    Molecular_Weight:             368.657
##########                DOCK_Rotatable_Bonds:                   6
##########                       Formal_Charge:           0.0100005
##########                     HBond_Acceptors:                   7
##########                        HBond_Donors:                   2
##########                         Heavy_Atoms:                  19
##########                          Grid_Score:          -29.443031
##########                     Grid_vdw_energy:          -29.641399
##########                      Grid_es_energy:            0.198369
##########           Internal_energy_repulsive:            7.306897

@<TRIPOS>MOLECULE
ZINC000863208514
 31 31 1 0 0
SMALL
USER_CHARGES


@<TRIPOS>ATOM
      1 C1         -5.3314    1.5135   50.3898 C.3     1  ZINC000863208514    0.0900
      2 N2         -6.4246    1.2608   51.3318 N.am    1  ZINC000863208514   -0.6100
      3 C3         -6.8657    2.3197   52.2431 C.3     1  ZINC000863208514    0.0700
      4 C4         -7.0245    0.0542   51.3600 C.2     1  ZINC000863208514    0.5100
      5 O5         -6.6582   -0.8228   50.6067 O.2     1  ZINC000863208514   -0.5400
      6 C6         -8.1502   -0.2051   52.3278 C.3     1  ZINC000863208514    0.1100
      7 N7         -8.9612   -1.3254   51.8446 N.am    1  ZINC000863208514   -0.6600
      8 C8        -10.2225   -1.4863   52.2915 C.2     1  ZINC000863208514    0.5600
      9 S9        -10.8761   -0.3828   53.4255 S.2     1  ZINC000863208514   -0.6000
     10 N10       -10.9691   -2.5161   51.8458 N.am    1  ZINC000863208514   -0.6300
     11 C11       -12.2798   -2.6833   52.3102 C.ar    1  ZINC000863208514    0.1200
     12 C12       -12.5360   -3.5321   53.3775 C.ar    1  ZINC000863208514   -0.0300
     13 C13       -13.8309   -3.6952   53.8346 C.ar    1  ZINC000863208514   -0.0200
     14 Cl14      -14.1518   -4.7566   55.1703 Cl      1  ZINC000863208514   -0.0300
     15 C15       -14.8716   -3.0126   53.2285 C.ar    1  ZINC000863208514   -0.0600
     16 Br16      -16.6408   -3.2385   53.8567 Br      1  ZINC000863208514   -0.0100
     17 C17       -14.6196   -2.1650   52.1642 C.ar    1  ZINC000863208514   -0.1100
     18 C18       -13.3263   -1.9945   51.7061 C.ar    1  ZINC000863208514    0.1100
     19 F19       -13.0805   -1.1669   50.6670 F       1  ZINC000863208514   -0.1200
     20 H20        -4.9749    2.5361   50.5128 H       1  ZINC000863208514    0.0800
     21 H21        -4.5152    0.8182   50.5855 H       1  ZINC000863208514    0.0700
     22 H22        -5.6908    1.3742   49.3702 H       1  ZINC000863208514    0.0700
     23 H23        -7.6539    2.9033   51.7674 H       1  ZINC000863208514    0.0700
     24 H24        -7.2479    1.8732   53.1610 H       1  ZINC000863208514    0.0800
     25 H25        -6.0237    2.9704   52.4787 H       1  ZINC000863208514    0.0800
     26 H26        -7.7385   -0.4503   53.3068 H       1  ZINC000863208514    0.1200
     27 H27        -8.7727    0.6860   52.4082 H       1  ZINC000863208514    0.1200
     28 H28        -8.5904   -1.9513   51.2030 H       1  ZINC000863208514    0.4100
     29 H29       -10.5987   -3.1413   51.2032 H       1  ZINC000863208514    0.4200
     30 H30       -11.7248   -4.0653   53.8508 H       1  ZINC000863208514    0.1800
     31 H31       -15.4334   -1.6336   51.6931 H       1  ZINC000863208514    0.1600
@<TRIPOS>BOND
     1     1     2    1
     2     1    20    1
     3     1    21    1
     4     1    22    1
     5     2     3    1
     6     2     4   am
     7     3    23    1
     8     3    24    1
     9     3    25    1
    10     4     5    2
    11     4     6    1
    12     6     7    1
    13     6    26    1
    14     6    27    1
    15     7     8   am
    16     7    28    1
    17     8     9    2
    18     8    10   am
    19    10    11    1
    20    10    29    1
    21    11    18   ar
    22    11    12   ar
    23    12    13   ar
    24    12    30    1
    25    13    14    1
    26    13    15   ar
    27    15    16    1
    28    15    17   ar
    29    17    18   ar
    30    17    31    1
    31    18    19    1
@<TRIPOS>SUBSTRUCTURE
     1 ZINC000863208514        1 TEMP              0 ****  ****    0 ROOT


##########                                Name:    ZINC000623581528
##########                DOCK_Rotatable_Bonds:                   5
##########                         Heavy_Atoms:                  26
##########                    Molecular_Weight:             355.369
##########                DOCK_Rotatable_Bonds:                   5
##########                       Formal_Charge:        -4.47035e-07
##########                     HBond_Acceptors:                   7
##########                        HBond_Donors:                   2
##########                         Heavy_Atoms:                  26
##########                          Grid_Score:          -29.426958
##########                     Grid_vdw_energy:          -30.358799
##########                      Grid_es_energy:            0.931841
##########           Internal_energy_repulsive:            2.880449

@<TRIPOS>MOLECULE
ZINC000623581528
 44 47 1 0 0
SMALL
USER_CHARGES


@<TRIPOS>ATOM
      1 C1        -14.1663   -2.9206   55.9302 C.3     1  ZINC000623581528    0.1000
      2 N2        -13.1330   -3.7513   56.5535 N.am    1  ZINC000623581528   -0.5500
      3 C3        -13.0882   -5.0983   56.5575 C.2     1  ZINC000623581528    0.6300
      4 O4        -13.9089   -5.8296   56.0379 O.2     1  ZINC000623581528   -0.4800
      5 O5        -11.9972   -5.5074   57.2239 O.3     1  ZINC000623581528   -0.2300
      6 C6        -11.3127   -4.4240   57.6656 C.ar    1  ZINC000623581528    0.0400
      7 C7        -10.1413   -4.2774   58.3913 C.ar    1  ZINC000623581528   -0.0800
      8 C8         -9.6760   -3.0138   58.7008 C.ar    1  ZINC000623581528   -0.0900
      9 C9        -10.3745   -1.8923   58.2899 C.ar    1  ZINC000623581528   -0.0900
     10 C10        -9.8587   -0.5184   58.6325 C.3     1  ZINC000623581528    0.1800
     11 N11        -8.8322   -0.1265   57.6635 N.am    1  ZINC000623581528   -0.7400
     12 C12        -8.4382    1.1599   57.5823 C.2     1  ZINC000623581528    0.7100
     13 O13        -8.9358    1.9953   58.3122 O.2     1  ZINC000623581528   -0.5800
     14 N14        -7.4927    1.5200   56.6920 N.am    1  ZINC000623581528   -0.7300
     15 C15        -7.0632    2.9180   56.6049 C.3     1  ZINC000623581528    0.2000
     16 H16        -7.1347    3.3965   57.5816 H       1  ZINC000623581528    0.1000
     17 C17        -7.9215    3.6787   55.5719 C.3     1  ZINC000623581528   -0.1300
     18 C18        -7.0924    3.5300   54.2785 C.3     1  ZINC000623581528   -0.0800
     19 C19        -5.6626    3.3520   54.7427 C.ar    1  ZINC000623581528   -0.1000
     20 C20        -4.4713    3.4872   54.0497 C.ar    1  ZINC000623581528   -0.0800
     21 C21        -3.2662    3.2724   54.6892 C.ar    1  ZINC000623581528   -0.1400
     22 C22        -3.2483    2.9203   56.0279 C.ar    1  ZINC000623581528    0.0900
     23 F23        -2.0712    2.7099   56.6566 F       1  ZINC000623581528   -0.1400
     24 C24        -4.4382    2.7845   56.7210 C.ar    1  ZINC000623581528   -0.1200
     25 C25        -5.6450    3.0001   56.0823 C.ar    1  ZINC000623581528   -0.0900
     26 C26       -11.5434   -2.0285   57.5658 C.ar    1  ZINC000623581528   -0.0800
     27 C27       -12.0128   -3.2925   57.2461 C.ar    1  ZINC000623581528    0.0700
     28 H28       -13.8854   -2.7038   54.8995 H       1  ZINC000623581528    0.0800
     29 H29       -15.1173   -3.4530   55.9432 H       1  ZINC000623581528    0.0900
     30 H30       -14.2650   -1.9869   56.4840 H       1  ZINC000623581528    0.0900
     31 H31        -9.5931   -5.1497   58.7149 H       1  ZINC000623581528    0.1500
     32 H32        -8.7630   -2.9009   59.2666 H       1  ZINC000623581528    0.1500
     33 H33       -10.6806    0.1967   58.6004 H       1  ZINC000623581528    0.0800
     34 H34        -9.4273   -0.5315   59.6335 H       1  ZINC000623581528    0.0800
     35 H35        -8.4361   -0.7928   57.0804 H       1  ZINC000623581528    0.4000
     36 H36        -7.0966    0.8538   56.1087 H       1  ZINC000623581528    0.4000
     37 H37        -8.8995    3.2106   55.4610 H       1  ZINC000623581528    0.0900
     38 H38        -8.0220    4.7279   55.8492 H       1  ZINC000623581528    0.0900
     39 H39        -7.4198    2.6545   53.7179 H       1  ZINC000623581528    0.0800
     40 H40        -7.1824    4.4274   53.6664 H       1  ZINC000623581528    0.0800
     41 H41        -4.4846    3.7620   53.0054 H       1  ZINC000623581528    0.1300
     42 H42        -2.3392    3.3788   54.1456 H       1  ZINC000623581528    0.1400
     43 H43        -4.4247    2.5097   57.7654 H       1  ZINC000623581528    0.1400
     44 H44       -12.0873   -1.1521   57.2458 H       1  ZINC000623581528    0.1400
@<TRIPOS>BOND
     1     1     2    1
     2     1    28    1
     3     1    29    1
     4     1    30    1
     5     2    27    1
     6     2     3   am
     7     3     4    2
     8     3     5    1
     9     5     6    1
    10     6    27   ar
    11     6     7   ar
    12     7     8   ar
    13     7    31    1
    14     8     9   ar
    15     8    32    1
    16     9    10    1
    17     9    26   ar
    18    10    11    1
    19    10    33    1
    20    10    34    1
    21    11    12   am
    22    11    35    1
    23    12    13    2
    24    12    14   am
    25    14    15    1
    26    14    36    1
    27    15    16    1
    28    15    25    1
    29    15    17    1
    30    17    18    1
    31    17    37    1
    32    17    38    1
    33    18    19    1
    34    18    39    1
    35    18    40    1
    36    19    25   ar
    37    19    20   ar
    38    20    21   ar
    39    20    41    1
    40    21    22   ar
    41    21    42    1
    42    22    23    1
    43    22    24   ar
    44    24    25   ar
    45    24    43    1
    46    26    27   ar
    47    26    44    1
@<TRIPOS>SUBSTRUCTURE
     1 ZINC000623581528        1 TEMP              0 ****  ****    0 ROOT


##########                                Name:    ZINC000002873519
##########                DOCK_Rotatable_Bonds:                   5
##########                         Heavy_Atoms:                  25
##########                    Molecular_Weight:             375.207
##########                DOCK_Rotatable_Bonds:                   5
##########                       Formal_Charge:               -0.02
##########                     HBond_Acceptors:                   6
##########                        HBond_Donors:                   0
##########                         Heavy_Atoms:                  25
##########                          Grid_Score:          -29.387463
##########                     Grid_vdw_energy:          -28.880173
##########                      Grid_es_energy:           -0.507289
##########           Internal_energy_repulsive:            6.716000

@<TRIPOS>MOLECULE
ZINC000002873519
 37 39 1 0 0
SMALL
USER_CHARGES


@<TRIPOS>ATOM
      1 C1        -10.4247   -2.4013   57.9203 C.3     1  ZINC000002873519   -0.1500
      2 C2        -11.1706   -1.7724   56.7716 C.2     1  ZINC000002873519    0.4500
      3 O3        -12.1091   -1.0428   56.9879 O.2     1  ZINC000002873519   -0.4800
      4 O4        -10.7921   -2.0229   55.5078 O.3     1  ZINC000002873519   -0.2900
      5 C5        -11.7695   -2.0549   54.5666 C.ar    1  ZINC000002873519    0.1200
      6 C6        -12.6858   -3.0931   54.5501 C.ar    1  ZINC000002873519   -0.1100
      7 C7        -13.6813   -3.1253   53.5919 C.ar    1  ZINC000002873519   -0.0800
      8 C8        -13.7736   -2.1215   52.6394 C.ar    1  ZINC000002873519   -0.0400
      9 Cl9       -15.0310   -2.1780   51.4439 Cl      1  ZINC000002873519   -0.0500
     10 C10       -12.8720   -1.0790   52.6377 C.ar    1  ZINC000002873519   -0.0800
     11 C11       -11.8603   -1.0304   53.6066 C.ar    1  ZINC000002873519   -0.0700
     12 C12       -10.8986    0.0728   53.6131 C.2     1  ZINC000002873519    0.0400
     13 C13        -9.7072   -0.0456   52.9245 C.2     1  ZINC000002873519   -0.1900
     14 C14        -8.6214    0.9445   52.8201 C.2     1  ZINC000002873519   -0.2000
     15 C15        -7.6668    0.3853   52.0470 C.2     1  ZINC000002873519    0.1200
     16 C16        -6.3953    1.0435   51.6864 C.ar    1  ZINC000002873519   -0.0400
     17 C17        -5.9979    2.2096   52.3445 C.ar    1  ZINC000002873519   -0.0800
     18 C18        -4.8092    2.8195   52.0030 C.ar    1  ZINC000002873519   -0.1100
     19 C19        -4.0102    2.2785   51.0095 C.ar    1  ZINC000002873519   -0.0200
     20 Cl20       -2.5152    3.0524   50.5854 Cl      1  ZINC000002873519   -0.0600
     21 C21        -4.3986    1.1224   50.3532 C.ar    1  ZINC000002873519   -0.1100
     22 C22        -5.5820    0.4993   50.6896 C.ar    1  ZINC000002873519   -0.0800
     23 O23        -8.0233   -0.8517   51.6469 O.3     1  ZINC000002873519   -0.2600
     24 C24        -9.2302   -1.1949   52.1318 C.2     1  ZINC000002873519    0.5200
     25 O25        -9.8173   -2.2443   51.9459 O.2     1  ZINC000002873519   -0.4200
     26 H26       -10.8797   -3.3605   58.1671 H       1  ZINC000002873519    0.1100
     27 H27        -9.3836   -2.5551   57.6367 H       1  ZINC000002873519    0.1000
     28 H28       -10.4715   -1.7429   58.7878 H       1  ZINC000002873519    0.1100
     29 H29       -12.6221   -3.8797   55.2875 H       1  ZINC000002873519    0.1500
     30 H30       -14.3924   -3.9382   53.5847 H       1  ZINC000002873519    0.1500
     31 H31       -12.9471   -0.2996   51.8939 H       1  ZINC000002873519    0.1500
     32 H32       -11.1205    0.9795   54.1564 H       1  ZINC000002873519    0.1500
     33 H33        -8.5947    1.9248   53.2723 H       1  ZINC000002873519    0.1700
     34 H34        -6.6204    2.6329   53.1190 H       1  ZINC000002873519    0.1400
     35 H35        -4.5007    3.7213   52.5111 H       1  ZINC000002873519    0.1400
     36 H36        -3.7712    0.7056   49.5791 H       1  ZINC000002873519    0.1400
     37 H37        -5.8837   -0.4021   50.1771 H       1  ZINC000002873519    0.1400
@<TRIPOS>BOND
     1     1     2    1
     2     1    26    1
     3     1    27    1
     4     1    28    1
     5     2     3    2
     6     2     4    1
     7     4     5    1
     8     5    11   ar
     9     5     6   ar
    10     6     7   ar
    11     6    29    1
    12     7     8   ar
    13     7    30    1
    14     8     9    1
    15     8    10   ar
    16    10    11   ar
    17    10    31    1
    18    11    12    1
    19    12    13    2
    20    12    32    1
    21    13    24    1
    22    13    14    1
    23    14    15    2
    24    14    33    1
    25    15    16    1
    26    15    23    1
    27    16    22   ar
    28    16    17   ar
    29    17    18   ar
    30    17    34    1
    31    18    19   ar
    32    18    35    1
    33    19    20    1
    34    19    21   ar
    35    21    22   ar
    36    21    36    1
    37    22    37    1
    38    23    24    1
    39    24    25    2
@<TRIPOS>SUBSTRUCTURE
     1 ZINC000002873519        1 TEMP              0 ****  ****    0 ROOT


##########                                Name:    ZINC000154446008
##########                DOCK_Rotatable_Bonds:                   5
##########                         Heavy_Atoms:                  24
##########                    Molecular_Weight:              349.41
##########                DOCK_Rotatable_Bonds:                   5
##########                       Formal_Charge:          -0.0199999
##########                     HBond_Acceptors:                   8
##########                        HBond_Donors:                   0
##########                         Heavy_Atoms:                  24
##########                          Grid_Score:          -29.346273
##########                     Grid_vdw_energy:          -29.455292
##########                      Grid_es_energy:            0.109018
##########           Internal_energy_repulsive:           13.146060

@<TRIPOS>MOLECULE
ZINC000154446008
 43 45 1 0 0
SMALL
USER_CHARGES


@<TRIPOS>ATOM
      1 O1         -9.9893   -5.3103   58.0338 O.2     1  ZINC000154446008   -0.5000
      2 C2        -10.7666   -4.3826   58.1618 C.2     1  ZINC000154446008    0.5900
      3 C3        -11.7943   -4.1419   57.1447 C.2     1  ZINC000154446008   -0.2300
      4 C4        -13.0850   -4.5871   57.2010 C.2     1  ZINC000154446008   -0.0600
      5 C5        -13.8361   -4.2162   56.1110 C.2     1  ZINC000154446008   -0.0500
      6 C6        -13.1851   -3.4924   55.1928 C.2     1  ZINC000154446008   -0.2100
      7 N7        -13.7908   -2.9842   53.9413 N.pl3   1  ZINC000154446008    0.0500
      8 O8        -13.1367   -2.2849   53.1885 O.2     1  ZINC000154446008   -0.1300
      9 O9        -14.9431   -3.2653   53.6645 O.2     1  ZINC000154446008   -0.1500
     10 S10       -11.5658   -3.2273   55.6604 S.3     1  ZINC000154446008    0.3500
     11 N11       -10.6859   -3.5800   59.2416 N.am    1  ZINC000154446008   -0.6100
     12 C12        -9.6568   -3.8059   60.2661 C.3     1  ZINC000154446008    0.0800
     13 C13        -8.8523   -2.5126   60.4461 C.3     1  ZINC000154446008    0.0900
     14 N14        -9.7915   -1.3957   60.6197 N.am    1  ZINC000154446008   -0.6100
     15 C15        -9.7102   -0.5925   61.6991 C.2     1  ZINC000154446008    0.5500
     16 O16        -8.8540   -0.7890   62.5401 O.2     1  ZINC000154446008   -0.5300
     17 C17       -10.6571    0.5217   61.8597 C.2     1  ZINC000154446008   -0.1500
     18 C18       -10.3860    1.6575   61.2539 C.2     1  ZINC000154446008   -0.1100
     19 C19       -11.2567    2.8772   61.3380 C.3     1  ZINC000154446008   -0.1000
     20 C20       -12.6515    2.4950   61.8381 C.3     1  ZINC000154446008   -0.1200
     21 C21       -12.4981    1.6378   63.1005 C.3     1  ZINC000154446008   -0.1200
     22 C22       -11.8797    0.2951   62.7003 C.3     1  ZINC000154446008   -0.0700
     23 C23       -10.8207   -1.1698   59.5952 C.3     1  ZINC000154446008    0.1000
     24 C24       -11.6216   -2.4597   59.4124 C.3     1  ZINC000154446008    0.1000
     25 H25       -13.4760   -5.1721   58.0202 H       1  ZINC000154446008    0.1800
     26 H26       -14.8754   -4.4893   56.0033 H       1  ZINC000154446008    0.1800
     27 H27       -10.1324   -4.0751   61.2092 H       1  ZINC000154446008    0.0900
     28 H28        -8.9923   -4.6086   59.9465 H       1  ZINC000154446008    0.0900
     29 H29        -8.2169   -2.5967   61.3278 H       1  ZINC000154446008    0.1100
     30 H30        -8.2366   -2.3390   59.5636 H       1  ZINC000154446008    0.0800
     31 H31        -9.4844    1.7160   60.6621 H       1  ZINC000154446008    0.1100
     32 H32       -10.8096    3.5935   62.0272 H       1  ZINC000154446008    0.0900
     33 H33       -11.3388    3.3314   60.3506 H       1  ZINC000154446008    0.0800
     34 H34       -13.2158    3.3971   62.0742 H       1  ZINC000154446008    0.0700
     35 H35       -13.1726    1.9246   61.0691 H       1  ZINC000154446008    0.0700
     36 H36       -11.8477    2.1467   63.8119 H       1  ZINC000154446008    0.0700
     37 H37       -13.4768    1.4697   63.5501 H       1  ZINC000154446008    0.0700
     38 H38       -12.6100   -0.2854   62.1367 H       1  ZINC000154446008    0.0800
     39 H39       -11.5989   -0.2554   63.5982 H       1  ZINC000154446008    0.0700
     40 H40       -11.4851   -0.3671   59.9148 H       1  ZINC000154446008    0.1100
     41 H41       -10.3450   -0.9006   58.6521 H       1  ZINC000154446008    0.0800
     42 H42       -12.2565   -2.3742   58.5305 H       1  ZINC000154446008    0.1100
     43 H43       -12.2377   -2.6358   60.2940 H       1  ZINC000154446008    0.0800
@<TRIPOS>BOND
     1     1     2    2
     2     2     3    1
     3     2    11   am
     4     3    10    1
     5     3     4    2
     6     4     5    1
     7     4    25    1
     8     5     6    2
     9     5    26    1
    10     6     7    1
    11     6    10    1
    12     7     8    2
    13     7     9    2
    14    11    24    1
    15    11    12    1
    16    12    13    1
    17    12    27    1
    18    12    28    1
    19    13    14    1
    20    13    29    1
    21    13    30    1
    22    14    15   am
    23    14    23    1
    24    15    16    2
    25    15    17    1
    26    17    22    1
    27    17    18    2
    28    18    19    1
    29    18    31    1
    30    19    20    1
    31    19    32    1
    32    19    33    1
    33    20    21    1
    34    20    34    1
    35    20    35    1
    36    21    22    1
    37    21    36    1
    38    21    37    1
    39    22    38    1
    40    22    39    1
    41    23    24    1
    42    23    40    1
    43    23    41    1
    44    24    42    1
    45    24    43    1
@<TRIPOS>SUBSTRUCTURE
     1 ZINC000154446008        1 TEMP              0 ****  ****    0 ROOT


##########                                Name:    ZINC000077537368
##########                DOCK_Rotatable_Bonds:                   5
##########                         Heavy_Atoms:                  27
##########                    Molecular_Weight:             365.478
##########                DOCK_Rotatable_Bonds:                   5
##########                       Formal_Charge:          -0.0400007
##########                     HBond_Acceptors:                   6
##########                        HBond_Donors:                   0
##########                         Heavy_Atoms:                  27
##########                          Grid_Score:          -29.295708
##########                     Grid_vdw_energy:          -30.058416
##########                      Grid_es_energy:            0.762709
##########           Internal_energy_repulsive:           16.042656

@<TRIPOS>MOLECULE
ZINC000077537368
 54 56 1 0 0
SMALL
USER_CHARGES


@<TRIPOS>ATOM
      1 C1        -13.0308    1.2235   52.0264 C.3     1  ZINC000077537368    0.0800
      2 N2        -11.6264    0.8388   52.1874 N.pl3   1  ZINC000077537368   -0.2600
      3 N3        -10.6302    1.6494   52.1691 N.2     1  ZINC000077537368   -0.2700
      4 C4         -9.5024    1.0077   52.3390 C.2     1  ZINC000077537368    0.0400
      5 C5         -8.1277    1.6240   52.3756 C.3     1  ZINC000077537368    0.0200
      6 C6         -8.1165    2.8966   51.5263 C.3     1  ZINC000077537368   -0.1400
      7 C7         -7.7629    1.9717   53.8202 C.3     1  ZINC000077537368   -0.1400
      8 C8         -7.1078    0.6294   51.8174 C.3     1  ZINC000077537368   -0.1400
      9 C9         -9.7990   -0.3497   52.4811 C.2     1  ZINC000077537368   -0.2000
     10 C10       -11.1771   -0.4358   52.3858 C.2     1  ZINC000077537368   -0.0400
     11 C11       -11.9939   -1.6569   52.4718 C.2     1  ZINC000077537368    0.5900
     12 O12       -12.2349   -2.2993   51.4676 O.2     1  ZINC000077537368   -0.5400
     13 N13       -12.4750   -2.0633   53.6635 N.am    1  ZINC000077537368   -0.6000
     14 C14       -13.2884   -3.2838   53.7728 C.3     1  ZINC000077537368    0.0800
     15 C15       -12.6968   -4.1656   54.8776 C.3     1  ZINC000077537368    0.0400
     16 N16       -12.5817   -3.3829   56.1155 N.3     1  ZINC000077537368   -0.5300
     17 C17       -12.1808   -4.2358   57.2422 C.3     1  ZINC000077537368    0.0900
     18 C18       -11.6953   -3.3725   58.3780 C.ar    1  ZINC000077537368   -0.0500
     19 C19       -10.3436   -3.3111   58.6673 C.ar    1  ZINC000077537368   -0.1200
     20 C20        -9.8924   -2.5231   59.7057 C.ar    1  ZINC000077537368   -0.0700
     21 C21       -10.8032   -1.7861   60.4653 C.ar    1  ZINC000077537368   -0.0300
     22 C22       -10.3419   -0.9656   61.5445 C.1     1  ZINC000077537368    0.2500
     23 N23        -9.9759   -0.3147   62.4006 N.1     1  ZINC000077537368   -0.4100
     24 C24       -12.1658   -1.8523   60.1675 C.ar    1  ZINC000077537368   -0.0700
     25 C25       -12.6027   -2.6403   59.1229 C.ar    1  ZINC000077537368   -0.1000
     26 C26       -11.6518   -2.2577   55.9499 C.3     1  ZINC000077537368    0.0400
     27 C27       -12.1955   -1.3011   54.8899 C.3     1  ZINC000077537368    0.1200
     28 H28       -13.4877    1.3498   53.0079 H       1  ZINC000077537368    0.0800
     29 H29       -13.0896    2.1618   51.4749 H       1  ZINC000077537368    0.1000
     30 H30       -13.5600    0.4452   51.4767 H       1  ZINC000077537368    0.1100
     31 H31        -8.8431    3.6051   51.9240 H       1  ZINC000077537368    0.0600
     32 H32        -7.1222    3.3424   51.5529 H       1  ZINC000077537368    0.0600
     33 H33        -8.3763    2.6488   50.4972 H       1  ZINC000077537368    0.0600
     34 H34        -7.7709    1.0651   54.4253 H       1  ZINC000077537368    0.0600
     35 H35        -6.7686    2.4175   53.8468 H       1  ZINC000077537368    0.0600
     36 H36        -8.4896    2.6802   54.2179 H       1  ZINC000077537368    0.0600
     37 H37        -7.3676    0.3817   50.7882 H       1  ZINC000077537368    0.0600
     38 H38        -6.1135    1.0752   51.8439 H       1  ZINC000077537368    0.0600
     39 H39        -7.1157   -0.2772   52.4225 H       1  ZINC000077537368    0.0600
     40 H40        -9.1016   -1.1597   52.6362 H       1  ZINC000077537368    0.1700
     41 H41       -14.3147   -3.0184   54.0263 H       1  ZINC000077537368    0.0800
     42 H42       -13.2698   -3.8222   52.8253 H       1  ZINC000077537368    0.1200
     43 H43       -13.3493   -5.0218   55.0481 H       1  ZINC000077537368    0.0900
     44 H44       -11.7095   -4.5146   54.5749 H       1  ZINC000077537368    0.0400
     45 H45       -13.0354   -4.8254   57.5737 H       1  ZINC000077537368    0.0900
     46 H46       -11.3796   -4.9035   56.9253 H       1  ZINC000077537368    0.0500
     47 H47        -9.6402   -3.8817   58.0790 H       1  ZINC000077537368    0.1300
     48 H48        -8.8372   -2.4766   59.9310 H       1  ZINC000077537368    0.1300
     49 H49       -12.8755   -1.2848   60.7510 H       1  ZINC000077537368    0.1300
     50 H50       -13.6562   -2.6922   58.8913 H       1  ZINC000077537368    0.1400
     51 H51       -11.5466   -1.7304   56.8980 H       1  ZINC000077537368    0.1000
     52 H52       -10.6792   -2.6334   55.6323 H       1  ZINC000077537368    0.0400
     53 H53       -11.4566   -0.5273   54.6817 H       1  ZINC000077537368    0.1000
     54 H54       -13.1178   -0.8438   55.2479 H       1  ZINC000077537368    0.0800
@<TRIPOS>BOND
     1     1     2    1
     2     1    28    1
     3     1    29    1
     4     1    30    1
     5     2    10    1
     6     2     3    1
     7     3     4    2
     8     4     5    1
     9     4     9    1
    10     5     6    1
    11     5     7    1
    12     5     8    1
    13     6    31    1
    14     6    32    1
    15     6    33    1
    16     7    34    1
    17     7    35    1
    18     7    36    1
    19     8    37    1
    20     8    38    1
    21     8    39    1
    22     9    10    2
    23     9    40    1
    24    10    11    1
    25    11    12    2
    26    11    13   am
    27    13    27    1
    28    13    14    1
    29    14    15    1
    30    14    41    1
    31    14    42    1
    32    15    16    1
    33    15    43    1
    34    15    44    1
    35    16    17    1
    36    16    26    1
    37    17    18    1
    38    17    45    1
    39    17    46    1
    40    18    25   ar
    41    18    19   ar
    42    19    20   ar
    43    19    47    1
    44    20    21   ar
    45    20    48    1
    46    21    22    1
    47    21    24   ar
    48    22    23    3
    49    24    25   ar
    50    24    49    1
    51    25    50    1
    52    26    27    1
    53    26    51    1
    54    26    52    1
    55    27    53    1
    56    27    54    1
@<TRIPOS>SUBSTRUCTURE
     1 ZINC000077537368        1 TEMP              0 ****  ****    0 ROOT


##########                                Name:    ZINC001013196242
##########                DOCK_Rotatable_Bonds:                   5
##########                         Heavy_Atoms:                  24
##########                    Molecular_Weight:              349.86
##########                DOCK_Rotatable_Bonds:                   5
##########                       Formal_Charge:        -3.05474e-07
##########                     HBond_Acceptors:                   6
##########                        HBond_Donors:                   1
##########                         Heavy_Atoms:                  24
##########                          Grid_Score:          -29.288563
##########                     Grid_vdw_energy:          -28.783758
##########                      Grid_es_energy:           -0.504805
##########           Internal_energy_repulsive:           14.719155

@<TRIPOS>MOLECULE
ZINC001013196242
 48 51 1 0 0
SMALL
USER_CHARGES


@<TRIPOS>ATOM
      1 C1        -10.3633    1.1295   59.7836 C.3     1  ZINC001013196242   -0.1600
      2 C2         -9.9940   -0.3203   59.4628 C.3     1  ZINC001013196242    0.1400
      3 H3         -9.0702   -0.5892   59.9750 H       1  ZINC001013196242    0.0800
      4 C4         -9.8188   -0.4925   57.9392 C.3     1  ZINC001013196242   -0.1400
      5 C5        -10.4345   -1.8919   57.6747 C.3     1  ZINC001013196242    0.1300
      6 H6         -9.7148   -2.6821   57.8881 H       1  ZINC001013196242    0.1100
      7 N7        -10.9320   -1.9955   56.3007 N.am    1  ZINC001013196242   -0.7200
      8 C8        -11.0618   -3.2050   55.7204 C.2     1  ZINC001013196242    0.5400
      9 O9        -10.7684   -4.2077   56.3364 O.2     1  ZINC001013196242   -0.5200
     10 C10       -11.5718   -3.3115   54.3064 C.3     1  ZINC001013196242   -0.1400
     11 C11       -12.7567   -4.2810   54.1504 C.3     1  ZINC001013196242   -0.0800
     12 C12       -13.6673   -3.0815   54.4343 C.3     1  ZINC001013196242   -0.1600
     13 C13       -15.1691   -2.9527   54.2056 C.3     1  ZINC001013196242   -0.1700
     14 C14       -14.5957   -2.8526   55.6218 C.3     1  ZINC001013196242   -0.1400
     15 C15       -12.5407   -2.1819   53.9146 C.3     1  ZINC001013196242   -0.0800
     16 C16       -11.6025   -1.9152   58.6922 C.3     1  ZINC001013196242    0.0800
     17 N17       -11.0792   -1.2178   59.8850 N.am    1  ZINC001013196242   -0.6000
     18 C18       -11.5248   -1.3777   61.1468 C.2     1  ZINC001013196242    0.6100
     19 O19       -12.4339   -2.1532   61.3774 O.2     1  ZINC001013196242   -0.5400
     20 C20       -10.9140   -0.6171   62.2421 C.2     1  ZINC001013196242   -0.0400
     21 C21        -9.5882   -0.6536   62.6193 C.2     1  ZINC001013196242   -0.1400
     22 C22        -9.4442    0.2215   63.7011 C.2     1  ZINC001013196242   -0.1200
     23 Cl23       -7.9718    0.5526   64.5591 Cl      1  ZINC001013196242   -0.0400
     24 C24       -10.6582    0.7653   63.9601 C.2     1  ZINC001013196242    0.0400
     25 N25       -11.5589    0.2673   63.0767 N.pl3   1  ZINC001013196242   -0.4000
     26 C26       -12.9828    0.6077   63.0248 C.3     1  ZINC001013196242    0.0700
     27 H27       -10.4908    1.2423   60.8602 H       1  ZINC001013196242    0.0700
     28 H28        -9.5682    1.7915   59.4405 H       1  ZINC001013196242    0.0700
     29 H29       -11.2942    1.3875   59.2784 H       1  ZINC001013196242    0.0600
     30 H30       -10.3673    0.2786   57.3984 H       1  ZINC001013196242    0.0900
     31 H31        -8.7631   -0.4783   57.6684 H       1  ZINC001013196242    0.0900
     32 H32       -11.1678   -1.1936   55.8085 H       1  ZINC001013196242    0.4000
     33 H33       -10.7750   -3.4740   53.5805 H       1  ZINC001013196242    0.1000
     34 H34       -12.8635   -4.6821   53.1425 H       1  ZINC001013196242    0.1000
     35 H35       -12.7954   -5.0513   54.9205 H       1  ZINC001013196242    0.0700
     36 H36       -15.5311   -2.0346   53.7429 H       1  ZINC001013196242    0.1000
     37 H37       -15.7186   -3.8580   53.9477 H       1  ZINC001013196242    0.0900
     38 H38       -14.7680   -3.6920   56.2954 H       1  ZINC001013196242    0.0900
     39 H39       -14.5804   -1.8685   56.0905 H       1  ZINC001013196242    0.1000
     40 H40       -12.4064   -1.2695   54.4955 H       1  ZINC001013196242    0.0800
     41 H41       -12.5874   -1.9988   52.8410 H       1  ZINC001013196242    0.0900
     42 H42       -12.4663   -1.3858   58.2902 H       1  ZINC001013196242    0.0800
     43 H43       -11.8682   -2.9426   58.9412 H       1  ZINC001013196242    0.1000
     44 H44        -8.8080   -1.2466   62.1654 H       1  ZINC001013196242    0.1600
     45 H45       -10.8726    1.4811   64.7398 H       1  ZINC001013196242    0.1800
     46 H46       -13.1411    1.3971   62.2900 H       1  ZINC001013196242    0.0800
     47 H47       -13.5571   -0.2739   62.7403 H       1  ZINC001013196242    0.1000
     48 H48       -13.3097    0.9535   64.0055 H       1  ZINC001013196242    0.0900
@<TRIPOS>BOND
     1     1     2    1
     2     1    27    1
     3     1    28    1
     4     1    29    1
     5     2     3    1
     6     2    17    1
     7     2     4    1
     8     4     5    1
     9     4    30    1
    10     4    31    1
    11     5     6    1
    12     5     7    1
    13     5    16    1
    14     7     8   am
    15     7    32    1
    16     8     9    2
    17     8    10    1
    18    10    15    1
    19    10    11    1
    20    10    33    1
    21    11    12    1
    22    11    34    1
    23    11    35    1
    24    12    14    1
    25    12    13    1
    26    12    15    1
    27    13    14    1
    28    13    36    1
    29    13    37    1
    30    14    38    1
    31    14    39    1
    32    15    40    1
    33    15    41    1
    34    16    17    1
    35    16    42    1
    36    16    43    1
    37    17    18   am
    38    18    19    2
    39    18    20    1
    40    20    25    1
    41    20    21    2
    42    21    22    1
    43    21    44    1
    44    22    23    1
    45    22    24    2
    46    24    25    1
    47    24    45    1
    48    25    26    1
    49    26    46    1
    50    26    47    1
    51    26    48    1
@<TRIPOS>SUBSTRUCTURE
     1 ZINC001013196242        1 TEMP              0 ****  ****    0 ROOT


##########                                Name:    ZINC000656860804
##########                DOCK_Rotatable_Bonds:                   2
##########                         Heavy_Atoms:                  19
##########                    Molecular_Weight:             388.068
##########                DOCK_Rotatable_Bonds:                   2
##########                       Formal_Charge:          8.9407e-08
##########                     HBond_Acceptors:                   8
##########                        HBond_Donors:                   1
##########                         Heavy_Atoms:                  19
##########                          Grid_Score:          -29.277132
##########                     Grid_vdw_energy:          -27.846460
##########                      Grid_es_energy:           -1.430672
##########           Internal_energy_repulsive:           17.730402

@<TRIPOS>MOLECULE
ZINC000656860804
 28 29 1 0 0
SMALL
USER_CHARGES


@<TRIPOS>ATOM
      1 O1        -12.8623   -0.0332   63.1506 O.2     1  ZINC000656860804   -0.5400
      2 C2        -11.8165   -0.3041   62.5994 C.2     1  ZINC000656860804    0.5100
      3 C3        -11.8632   -1.0952   61.3206 C.3     1  ZINC000656860804    0.1100
      4 N4        -10.5409   -1.0425   60.6797 N.am    1  ZINC000656860804   -1.0000
      5 S5        -10.3832   -0.8122   59.0473 S.o2    1  ZINC000656860804    2.6900
      6 O6        -11.1184    0.3630   58.7350 O.2     1  ZINC000656860804   -0.9200
      7 O7         -9.0018   -0.9661   58.7519 O.2     1  ZINC000656860804   -0.9300
      8 C8        -11.2141   -2.1456   58.2497 C.ar    1  ZINC000656860804   -0.6500
      9 C9        -12.3569   -1.9044   57.5112 C.ar    1  ZINC000656860804    0.0100
     10 C10       -13.0097   -2.9510   56.8847 C.ar    1  ZINC000656860804   -0.0400
     11 Cl11      -14.4451   -2.6479   55.9565 Cl      1  ZINC000656860804   -0.0200
     12 C12       -12.5177   -4.2402   56.9979 C.ar    1  ZINC000656860804    0.0200
     13 Cl13      -13.3358   -5.5540   56.2116 Cl      1  ZINC000656860804   -0.0100
     14 C14       -11.3736   -4.4808   57.7373 C.ar    1  ZINC000656860804   -0.0900
     15 C15       -10.7188   -3.4329   58.3583 C.ar    1  ZINC000656860804    0.0100
     16 Br16       -9.1549   -3.7618   59.3692 Br      1  ZINC000656860804    0.0100
     17 C17        -9.3624   -1.2024   61.5482 C.3     1  ZINC000656860804    0.0900
     18 C18        -9.3581   -0.0573   62.5628 C.3     1  ZINC000656860804    0.0800
     19 N19       -10.6782    0.1179   63.1519 N.am    1  ZINC000656860804   -0.7100
     20 H20       -12.1209   -2.1311   61.5415 H       1  ZINC000656860804    0.1200
     21 H21       -12.6100   -0.6660   60.6528 H       1  ZINC000656860804    0.1200
     22 H22       -12.7407   -0.8987   57.4234 H       1  ZINC000656860804    0.1700
     23 H23       -10.9896   -5.4863   57.8262 H       1  ZINC000656860804    0.1700
     24 H24        -9.4180   -2.1571   62.0714 H       1  ZINC000656860804    0.1000
     25 H25        -8.4542   -1.1644   60.9468 H       1  ZINC000656860804    0.1200
     26 H26        -8.6377   -0.2785   63.3503 H       1  ZINC000656860804    0.1000
     27 H27        -9.0677    0.8656   62.0608 H       1  ZINC000656860804    0.0800
     28 H28       -10.7333    0.5676   64.0096 H       1  ZINC000656860804    0.4000
@<TRIPOS>BOND
     1     1     2    2
     2     2    19   am
     3     2     3    1
     4     3     4    1
     5     3    20    1
     6     3    21    1
     7     4     5   am
     8     4    17    1
     9     5     6    2
    10     5     7    2
    11     5     8    1
    12     8    15   ar
    13     8     9   ar
    14     9    10   ar
    15     9    22    1
    16    10    11    1
    17    10    12   ar
    18    12    13    1
    19    12    14   ar
    20    14    15   ar
    21    14    23    1
    22    15    16    1
    23    17    18    1
    24    17    24    1
    25    17    25    1
    26    18    19    1
    27    18    26    1
    28    18    27    1
    29    19    28    1
@<TRIPOS>SUBSTRUCTURE
     1 ZINC000656860804        1 TEMP              0 ****  ****    0 ROOT


##########                                Name:    ZINC000373864439
##########                DOCK_Rotatable_Bonds:                   7
##########                         Heavy_Atoms:                  23
##########                    Molecular_Weight:              344.45
##########                DOCK_Rotatable_Bonds:                   7
##########                       Formal_Charge:          -0.0300001
##########                     HBond_Acceptors:                   7
##########                        HBond_Donors:                   1
##########                         Heavy_Atoms:                  23
##########                          Grid_Score:          -29.264223
##########                     Grid_vdw_energy:          -29.057348
##########                      Grid_es_energy:           -0.206875
##########           Internal_energy_repulsive:           20.665619

@<TRIPOS>MOLECULE
ZINC000373864439
 48 49 1 0 0
SMALL
USER_CHARGES


@<TRIPOS>ATOM
      1 C1         -9.8808   -0.8167   52.5641 C.3     1  ZINC000373864439   -0.1500
      2 C2        -10.0905   -2.2311   52.0195 C.3     1  ZINC000373864439   -0.6300
      3 S3        -11.4101   -3.0504   52.9565 S.o2    1  ZINC000373864439    2.6100
      4 O4        -12.5886   -2.2563   52.9563 O.2     1  ZINC000373864439   -0.9500
      5 O5        -11.4598   -4.4350   52.6412 O.2     1  ZINC000373864439   -0.9600
      6 N6        -10.8890   -3.0077   54.5278 N.am    1  ZINC000373864439   -1.1200
      7 C7        -11.7145   -3.5889   55.5893 C.3     1  ZINC000373864439    0.1100
      8 C8        -12.4547   -2.4726   56.3288 C.3     1  ZINC000373864439    0.0500
      9 N9        -11.7136   -2.1164   57.5461 N.3     1  ZINC000373864439   -0.5300
     10 C10       -12.3174   -2.7394   58.7309 C.3     1  ZINC000373864439    0.0400
     11 C11       -11.4398   -2.4676   59.9549 C.3     1  ZINC000373864439   -0.1300
     12 C12       -11.3117   -0.9556   60.1594 C.3     1  ZINC000373864439    0.1800
     13 F13       -12.5747   -0.4094   60.4121 F       1  ZINC000373864439   -0.2100
     14 C14       -10.4011   -0.6808   61.3284 C.ar    1  ZINC000373864439   -0.1500
     15 C15        -9.4667   -1.6224   61.7130 C.ar    1  ZINC000373864439   -0.0700
     16 C16        -8.6311   -1.3710   62.7859 C.ar    1  ZINC000373864439   -0.1600
     17 C17        -8.7285   -0.1770   63.4758 C.ar    1  ZINC000373864439   -0.0700
     18 C18        -9.6613    0.7684   63.0948 C.ar    1  ZINC000373864439   -0.2100
     19 C19       -10.4969    0.5208   62.0156 C.ar    1  ZINC000373864439    0.1400
     20 O20       -11.4153    1.4490   61.6388 O.3     1  ZINC000373864439   -0.3100
     21 C21       -12.4097    1.8055   62.6011 C.3     1  ZINC000373864439    0.0200
     22 C22       -10.7255   -0.3250   58.8932 C.3     1  ZINC000373864439   -0.1300
     23 C23       -11.6238   -0.6589   57.7001 C.3     1  ZINC000373864439    0.0600
     24 H24        -9.6002   -0.8702   53.6160 H       1  ZINC000373864439    0.0700
     25 H25        -9.0879   -0.3244   52.0010 H       1  ZINC000373864439    0.0800
     26 H26       -10.8051   -0.2478   52.4631 H       1  ZINC000373864439    0.0700
     27 H27       -10.3712   -2.1776   50.9677 H       1  ZINC000373864439    0.1300
     28 H28        -9.1662   -2.8000   52.1205 H       1  ZINC000373864439    0.1300
     29 H29       -10.0372   -2.5978   54.7453 H       1  ZINC000373864439    0.4200
     30 H30       -12.4381   -4.2767   55.1514 H       1  ZINC000373864439    0.0700
     31 H31       -11.0779   -4.1290   56.2901 H       1  ZINC000373864439    0.0900
     32 H32       -12.5332   -1.5984   55.6824 H       1  ZINC000373864439    0.0900
     33 H33       -13.4535   -2.8157   56.5988 H       1  ZINC000373864439    0.0400
     34 H34       -13.3100   -2.3203   58.8956 H       1  ZINC000373864439    0.0400
     35 H35       -12.3988   -3.8149   58.5741 H       1  ZINC000373864439    0.0900
     36 H36       -11.8962   -2.9168   60.8369 H       1  ZINC000373864439    0.0800
     37 H37       -10.4511   -2.8985   59.7967 H       1  ZINC000373864439    0.1000
     38 H38        -9.3887   -2.5560   61.1756 H       1  ZINC000373864439    0.1300
     39 H39        -7.9016   -2.1088   63.0855 H       1  ZINC000373864439    0.1300
     40 H40        -8.0751    0.0169   64.3136 H       1  ZINC000373864439    0.1300
     41 H41        -9.7372    1.7009   63.6343 H       1  ZINC000373864439    0.1300
     42 H42       -13.0776    2.5532   62.1735 H       1  ZINC000373864439    0.1000
     43 H43       -12.9836    0.9202   62.8755 H       1  ZINC000373864439    0.0600
     44 H44       -11.9267    2.2147   63.4884 H       1  ZINC000373864439    0.0600
     45 H45       -10.6716    0.7567   59.0167 H       1  ZINC000373864439    0.0800
     46 H46        -9.7256   -0.7222   58.7183 H       1  ZINC000373864439    0.1000
     47 H47       -11.2015   -0.2233   56.7945 H       1  ZINC000373864439    0.0800
     48 H48       -12.6196   -0.2495   57.8695 H       1  ZINC000373864439    0.0400
@<TRIPOS>BOND
     1     1     2    1
     2     1    24    1
     3     1    25    1
     4     1    26    1
     5     2     3    1
     6     2    27    1
     7     2    28    1
     8     3     4    2
     9     3     5    2
    10     3     6   am
    11     6     7    1
    12     6    29    1
    13     7     8    1
    14     7    30    1
    15     7    31    1
    16     8     9    1
    17     8    32    1
    18     8    33    1
    19     9    23    1
    20     9    10    1
    21    10    11    1
    22    10    34    1
    23    10    35    1
    24    11    12    1
    25    11    36    1
    26    11    37    1
    27    12    13    1
    28    12    14    1
    29    12    22    1
    30    14    19   ar
    31    14    15   ar
    32    15    16   ar
    33    15    38    1
    34    16    17   ar
    35    16    39    1
    36    17    18   ar
    37    17    40    1
    38    18    19   ar
    39    18    41    1
    40    19    20    1
    41    20    21    1
    42    21    42    1
    43    21    43    1
    44    21    44    1
    45    22    23    1
    46    22    45    1
    47    22    46    1
    48    23    47    1
    49    23    48    1
@<TRIPOS>SUBSTRUCTURE
     1 ZINC000373864439        1 TEMP              0 ****  ****    0 ROOT


##########                                Name:    ZINC000176150038
##########                DOCK_Rotatable_Bonds:                   4
##########                         Heavy_Atoms:                  23
##########                    Molecular_Weight:             333.712
##########                DOCK_Rotatable_Bonds:                   4
##########                       Formal_Charge:        -2.23517e-07
##########                     HBond_Acceptors:                  10
##########                        HBond_Donors:                   1
##########                         Heavy_Atoms:                  23
##########                          Grid_Score:          -29.259235
##########                     Grid_vdw_energy:          -28.441221
##########                      Grid_es_energy:           -0.818013
##########           Internal_energy_repulsive:           16.176365

@<TRIPOS>MOLECULE
ZINC000176150038
 32 34 1 0 0
SMALL
USER_CHARGES


@<TRIPOS>ATOM
      1 C1        -10.9398   -3.0265   52.5197 C.3     1  ZINC000176150038   -0.0900
      2 C2        -12.2564   -2.3289   52.2938 C.2     1  ZINC000176150038    0.2600
      3 N3        -12.6090   -1.6666   51.2231 N.2     1  ZINC000176150038   -0.3300
      4 N4        -13.7965   -1.1952   51.3529 N.2     1  ZINC000176150038   -0.0300
      5 N5        -14.2811   -1.5196   52.5030 N.2     1  ZINC000176150038   -0.0700
      6 N6        -13.2935   -2.2767   53.1573 N.pl3   1  ZINC000176150038   -0.3300
      7 C7        -13.3665   -2.8487   54.4365 C.ar    1  ZINC000176150038    0.1400
      8 C8        -14.0037   -4.0688   54.6161 C.ar    1  ZINC000176150038   -0.1000
      9 C9        -14.0763   -4.6341   55.8753 C.ar    1  ZINC000176150038   -0.1100
     10 C10       -13.5146   -3.9861   56.9601 C.ar    1  ZINC000176150038    0.1000
     11 F11       -13.5866   -4.5411   58.1898 F       1  ZINC000176150038   -0.1200
     12 C12       -12.8748   -2.7628   56.7854 C.ar    1  ZINC000176150038    0.1300
     13 N13       -12.3061   -2.1065   57.8828 N.am    1  ZINC000176150038   -0.6500
     14 C14       -11.2368   -2.6393   58.5064 C.2     1  ZINC000176150038    0.5700
     15 O15       -10.7664   -3.6894   58.1160 O.2     1  ZINC000176150038   -0.4800
     16 C16       -10.6340   -1.9437   59.6696 C.ar    1  ZINC000176150038    0.1400
     17 N17       -11.0855   -0.7518   60.0541 N.ar    1  ZINC000176150038   -0.4800
     18 C18       -10.5539   -0.1319   61.0853 C.ar    1  ZINC000176150038    0.3000
     19 N19        -9.5611   -0.6548   61.7785 N.ar    1  ZINC000176150038   -0.4800
     20 C20        -9.0553   -1.8342   61.4621 C.ar    1  ZINC000176150038    0.1700
     21 C21        -9.5867   -2.5306   60.3838 C.ar    1  ZINC000176150038   -0.1000
     22 Cl22       -8.9577   -4.0833   59.9285 Cl      1  ZINC000176150038    0.0100
     23 C23       -12.7969   -2.1975   55.5213 C.ar    1  ZINC000176150038   -0.0800
     24 H24       -11.0075   -4.0545   52.1635 H       1  ZINC000176150038    0.1100
     25 H25       -10.1536   -2.5041   51.9746 H       1  ZINC000176150038    0.1100
     26 H26       -10.7061   -3.0254   53.5843 H       1  ZINC000176150038    0.0900
     27 H27       -14.4437   -4.5770   53.7707 H       1  ZINC000176150038    0.1500
     28 H28       -14.5730   -5.5833   56.0123 H       1  ZINC000176150038    0.1600
     29 H29       -12.6816   -1.2682   58.1944 H       1  ZINC000176150038    0.4300
     30 H30       -10.9417    0.8342   61.3727 H       1  ZINC000176150038    0.2200
     31 H31        -8.2423   -2.2529   62.0367 H       1  ZINC000176150038    0.1900
     32 H32       -12.3009   -1.2482   55.3828 H       1  ZINC000176150038    0.1700
@<TRIPOS>BOND
     1     1     2    1
     2     1    24    1
     3     1    25    1
     4     1    26    1
     5     2     6    1
     6     2     3    2
     7     3     4    1
     8     4     5    2
     9     5     6    1
    10     6     7    1
    11     7    23   ar
    12     7     8   ar
    13     8     9   ar
    14     8    27    1
    15     9    10   ar
    16     9    28    1
    17    10    11    1
    18    10    12   ar
    19    12    13    1
    20    12    23   ar
    21    13    14   am
    22    13    29    1
    23    14    15    2
    24    14    16    1
    25    16    21   ar
    26    16    17   ar
    27    17    18   ar
    28    18    19   ar
    29    18    30    1
    30    19    20   ar
    31    20    21   ar
    32    20    31    1
    33    21    22    1
    34    23    32    1
@<TRIPOS>SUBSTRUCTURE
     1 ZINC000176150038        1 TEMP              0 ****  ****    0 ROOT


##########                                Name:    ZINC000010935976
##########                DOCK_Rotatable_Bonds:                   3
##########                         Heavy_Atoms:                  26
##########                    Molecular_Weight:             391.558
##########                DOCK_Rotatable_Bonds:                   3
##########                       Formal_Charge:         -0.00999979
##########                     HBond_Acceptors:                   7
##########                        HBond_Donors:                   1
##########                         Heavy_Atoms:                  26
##########                          Grid_Score:          -29.238522
##########                     Grid_vdw_energy:          -28.148129
##########                      Grid_es_energy:           -1.090393
##########           Internal_energy_repulsive:          124.662148

@<TRIPOS>MOLECULE
ZINC000010935976
 51 54 1 0 0
SMALL
USER_CHARGES


@<TRIPOS>ATOM
      1 C1        -13.5518   -0.1549   51.0619 C.3     1  ZINC000010935976   -0.0800
      2 C2        -12.7973   -0.2541   52.3626 C.2     1  ZINC000010935976   -0.2100
      3 C3        -12.0786    0.7219   52.8821 C.2     1  ZINC000010935976   -0.0400
      4 C4        -11.9336    2.0663   52.2166 C.3     1  ZINC000010935976   -0.1000
      5 C5        -11.4384    0.4016   54.1444 C.2     1  ZINC000010935976   -0.2300
      6 C6        -11.7190   -0.8984   54.5591 C.2     1  ZINC000010935976    0.0900
      7 N7        -11.2001   -1.3566   55.7155 N.2     1  ZINC000010935976   -0.4900
      8 C8        -10.4316   -0.6067   56.4684 C.2     1  ZINC000010935976    0.3400
      9 S9         -9.7863   -1.2696   57.9680 S.3     1  ZINC000010935976    0.0500
     10 C10       -11.2547   -2.1247   58.5913 C.3     1  ZINC000010935976   -0.1000
     11 H11       -12.1267   -1.8269   58.0089 H       1  ZINC000010935976    0.1400
     12 C12       -11.4726   -1.7662   60.0633 C.3     1  ZINC000010935976   -0.1000
     13 C13       -10.1440   -1.5870   60.7753 C.3     1  ZINC000010935976   -0.1300
     14 C14        -9.3382   -2.8671   60.9003 C.3     1  ZINC000010935976   -0.1400
     15 C15        -8.8691   -3.3523   59.5273 C.3     1  ZINC000010935976    0.0700
     16 N16        -9.9298   -4.1819   58.9331 N.am    1  ZINC000010935976   -0.7200
     17 C17       -11.0567   -3.6219   58.4814 C.2     1  ZINC000010935976    0.5400
     18 O18       -11.9213   -4.3156   57.9892 O.2     1  ZINC000010935976   -0.5200
     19 N19       -10.1193    0.6749   56.1179 N.am    1  ZINC000010935976   -0.5100
     20 C20        -9.2567    1.4792   56.9870 C.3     1  ZINC000010935976    0.1200
     21 C21        -7.8505    1.6055   56.3652 C.3     1  ZINC000010935976   -0.1300
     22 C22        -7.8897    2.9563   55.6085 C.3     1  ZINC000010935976   -0.1300
     23 C23        -8.7276    3.8532   56.5533 C.3     1  ZINC000010935976   -0.1100
     24 C24        -9.8144    2.9083   57.1065 C.3     1  ZINC000010935976   -0.1200
     25 C25       -10.6000    1.2032   54.9757 C.2     1  ZINC000010935976    0.5600
     26 O26       -10.3245    2.3475   54.6580 O.2     1  ZINC000010935976   -0.5000
     27 S27       -12.7684   -1.6795   53.3831 S.3     1  ZINC000010935976    0.2100
     28 H28       -14.0645   -1.0968   50.8665 H       1  ZINC000010935976    0.0700
     29 H29       -14.2835    0.6504   51.1269 H       1  ZINC000010935976    0.0800
     30 H30       -12.8532    0.0535   50.2516 H       1  ZINC000010935976    0.0800
     31 H31       -12.7263    2.7300   52.5620 H       1  ZINC000010935976    0.0700
     32 H32       -10.9643    2.4949   52.4708 H       1  ZINC000010935976    0.0800
     33 H33       -12.0056    1.9461   51.1356 H       1  ZINC000010935976    0.0700
     34 H34       -12.0416   -0.8386   60.1263 H       1  ZINC000010935976    0.0900
     35 H35       -12.0346   -2.5647   60.5477 H       1  ZINC000010935976    0.0900
     36 H36        -9.5514   -0.8549   60.2268 H       1  ZINC000010935976    0.0700
     37 H37       -10.3350   -1.1971   61.7751 H       1  ZINC000010935976    0.0800
     38 H38        -8.4690   -2.6832   61.5317 H       1  ZINC000010935976    0.0800
     39 H39        -9.9577   -3.6371   61.3600 H       1  ZINC000010935976    0.0700
     40 H40        -8.6719   -2.4947   58.8841 H       1  ZINC000010935976    0.1100
     41 H41        -7.9610   -3.9448   59.6395 H       1  ZINC000010935976    0.0900
     42 H42        -9.8100   -5.1422   58.8662 H       1  ZINC000010935976    0.4000
     43 H43        -9.1896    1.0207   57.9736 H       1  ZINC000010935976    0.1000
     44 H44        -7.0892    1.6270   57.1450 H       1  ZINC000010935976    0.0800
     45 H45        -7.6648    0.7851   55.6720 H       1  ZINC000010935976    0.0700
     46 H46        -6.8844    3.3590   55.4847 H       1  ZINC000010935976    0.0600
     47 H47        -8.3837    2.8444   54.6435 H       1  ZINC000010935976    0.1100
     48 H48        -8.1080    4.2376   57.3635 H       1  ZINC000010935976    0.0600
     49 H49        -9.1821    4.6731   55.9973 H       1  ZINC000010935976    0.0700
     50 H50       -10.7268    3.0035   56.5179 H       1  ZINC000010935976    0.0800
     51 H51       -10.0173    3.1436   58.1514 H       1  ZINC000010935976    0.0700
@<TRIPOS>BOND
     1     1     2    1
     2     1    28    1
     3     1    29    1
     4     1    30    1
     5     2    27    1
     6     2     3    2
     7     3     4    1
     8     3     5    1
     9     4    31    1
    10     4    32    1
    11     4    33    1
    12     5    25    1
    13     5     6    2
    14     6     7    1
    15     6    27    1
    16     7     8    2
    17     8     9    1
    18     8    19    1
    19     9    10    1
    20    10    11    1
    21    10    17    1
    22    10    12    1
    23    12    13    1
    24    12    34    1
    25    12    35    1
    26    13    14    1
    27    13    36    1
    28    13    37    1
    29    14    15    1
    30    14    38    1
    31    14    39    1
    32    15    16    1
    33    15    40    1
    34    15    41    1
    35    16    17   am
    36    16    42    1
    37    17    18    2
    38    19    20    1
    39    19    25   am
    40    20    24    1
    41    20    21    1
    42    20    43    1
    43    21    22    1
    44    21    44    1
    45    21    45    1
    46    22    23    1
    47    22    46    1
    48    22    47    1
    49    23    24    1
    50    23    48    1
    51    23    49    1
    52    24    50    1
    53    24    51    1
    54    25    26    2
@<TRIPOS>SUBSTRUCTURE
     1 ZINC000010935976        1 TEMP              0 ****  ****    0 ROOT


##########                                Name:    ZINC000518937710
##########                DOCK_Rotatable_Bonds:                   6
##########                         Heavy_Atoms:                  25
##########                    Molecular_Weight:             397.421
##########                DOCK_Rotatable_Bonds:                   6
##########                       Formal_Charge:          -0.0199997
##########                     HBond_Acceptors:                  11
##########                        HBond_Donors:                   0
##########                         Heavy_Atoms:                  25
##########                          Grid_Score:          -29.230528
##########                     Grid_vdw_energy:          -29.362463
##########                      Grid_es_energy:            0.131935
##########           Internal_energy_repulsive:           24.403582

@<TRIPOS>MOLECULE
ZINC000518937710
 42 44 1 0 0
SMALL
USER_CHARGES


@<TRIPOS>ATOM
      1 C1        -10.7604   -3.2382   53.6797 C.3     1  ZINC000518937710   -0.1900
      2 C2        -11.2926   -2.9414   55.0830 C.3     1  ZINC000518937710    0.1700
      3 H3        -10.4597   -2.8895   55.7841 H       1  ZINC000518937710    0.1100
      4 C4        -12.0361   -1.6043   55.0743 C.3     1  ZINC000518937710   -0.6600
      5 S5        -10.9316   -0.2943   55.6697 S.o2    1  ZINC000518937710    2.4000
      6 C6        -11.9806    1.1778   55.5186 C.3     1  ZINC000518937710   -0.6600
      7 O7        -10.6633   -0.5196   57.0469 O.2     1  ZINC000518937710   -0.9200
      8 O8         -9.8450   -0.1710   54.7623 O.2     1  ZINC000518937710   -0.9300
      9 N9        -12.2100   -4.0075   55.4930 N.am    1  ZINC000518937710   -0.9600
     10 C10       -13.1726   -4.5548   54.5338 C.3     1  ZINC000518937710    0.0800
     11 C11       -14.6407   -4.6122   54.9608 C.3     1  ZINC000518937710   -0.1800
     12 C12       -14.1862   -3.5870   53.9200 C.3     1  ZINC000518937710   -0.1800
     13 S13       -12.1590   -4.5939   57.0409 S.o2    1  ZINC000518937710    2.6900
     14 O14       -13.2531   -5.4921   57.1660 O.2     1  ZINC000518937710   -0.9400
     15 O15       -10.8110   -4.9728   57.2823 O.2     1  ZINC000518937710   -0.9400
     16 C16       -12.4975   -3.2439   58.1215 C.ar    1  ZINC000518937710   -0.6400
     17 C17       -13.6765   -2.5339   57.9918 C.ar    1  ZINC000518937710   -0.0300
     18 C18       -13.9455   -1.4741   58.8378 C.ar    1  ZINC000518937710   -0.1300
     19 C19       -13.0367   -1.1203   59.8175 C.ar    1  ZINC000518937710   -0.0300
     20 C20       -11.8531   -1.8273   59.9534 C.ar    1  ZINC000518937710    0.0200
     21 C21       -11.5844   -2.8981   59.1045 C.ar    1  ZINC000518937710    0.1900
     22 O22       -10.3695   -3.4242   59.4367 O.3     1  ZINC000518937710   -0.2800
     23 C23        -9.7157   -2.4129   60.2262 C.3     1  ZINC000518937710    0.5700
     24 F24        -8.9223   -3.0000   61.2176 F       1  ZINC000518937710   -0.1200
     25 F25        -8.9440   -1.5765   59.4123 F       1  ZINC000518937710   -0.1400
     26 O26       -10.8085   -1.6853   60.8206 O.3     1  ZINC000518937710   -0.2900
     27 H27       -11.5960   -3.3264   52.9853 H       1  ZINC000518937710    0.1000
     28 H28       -10.1064   -2.4270   53.3601 H       1  ZINC000518937710    0.0800
     29 H29       -10.1996   -4.1728   53.6939 H       1  ZINC000518937710    0.0700
     30 H30       -12.3580   -1.3742   54.0586 H       1  ZINC000518937710    0.1600
     31 H31       -12.9076   -1.6688   55.7258 H       1  ZINC000518937710    0.1400
     32 H32       -12.8257    1.0935   56.2018 H       1  ZINC000518937710    0.1300
     33 H33       -11.3991    2.0655   55.7679 H       1  ZINC000518937710    0.1300
     34 H34       -12.3473    1.2592   54.4954 H       1  ZINC000518937710    0.1300
     35 H35       -12.8000   -5.3610   53.9019 H       1  ZINC000518937710    0.1500
     36 H36       -15.2342   -5.4564   54.6099 H       1  ZINC000518937710    0.1100
     37 H37       -14.8903   -4.2428   55.9554 H       1  ZINC000518937710    0.1000
     38 H38       -14.1369   -2.5431   54.2298 H       1  ZINC000518937710    0.1000
     39 H39       -14.4808   -3.7568   52.8843 H       1  ZINC000518937710    0.1000
     40 H40       -14.3889   -2.8075   57.2275 H       1  ZINC000518937710    0.1600
     41 H41       -14.8673   -0.9214   58.7329 H       1  ZINC000518937710    0.1600
     42 H42       -13.2495   -0.2919   60.4771 H       1  ZINC000518937710    0.1500
@<TRIPOS>BOND
     1     1     2    1
     2     1    27    1
     3     1    28    1
     4     1    29    1
     5     2     3    1
     6     2     4    1
     7     2     9    1
     8     4     5    1
     9     4    30    1
    10     4    31    1
    11     5     6    1
    12     5     7    2
    13     5     8    2
    14     6    32    1
    15     6    33    1
    16     6    34    1
    17     9    10    1
    18     9    13   am
    19    10    12    1
    20    10    11    1
    21    10    35    1
    22    11    12    1
    23    11    36    1
    24    11    37    1
    25    12    38    1
    26    12    39    1
    27    13    14    2
    28    13    15    2
    29    13    16    1
    30    16    21   ar
    31    16    17   ar
    32    17    18   ar
    33    17    40    1
    34    18    19   ar
    35    18    41    1
    36    19    20   ar
    37    19    42    1
    38    20    26    1
    39    20    21   ar
    40    21    22    1
    41    22    23    1
    42    23    24    1
    43    23    25    1
    44    23    26    1
@<TRIPOS>SUBSTRUCTURE
     1 ZINC000518937710        1 TEMP              0 ****  ****    0 ROOT


##########                                Name:    ZINC000928803822
##########                DOCK_Rotatable_Bonds:                   7
##########                         Heavy_Atoms:                  21
##########                    Molecular_Weight:             364.165
##########                DOCK_Rotatable_Bonds:                   7
##########                       Formal_Charge:         -0.00999978
##########                     HBond_Acceptors:                   7
##########                        HBond_Donors:                   1
##########                         Heavy_Atoms:                  21
##########                          Grid_Score:          -29.106419
##########                     Grid_vdw_energy:          -28.626286
##########                      Grid_es_energy:           -0.480133
##########           Internal_energy_repulsive:            6.968690

@<TRIPOS>MOLECULE
ZINC000928803822
 34 34 1 0 0
SMALL
USER_CHARGES


@<TRIPOS>ATOM
      1 C1        -10.6135   -2.5313   52.3804 C.3     1  ZINC000928803822    0.0900
      2 N2        -11.8365   -2.3158   53.1578 N.pl3   1  ZINC000928803822   -0.6300
      3 C3        -13.0055   -1.6974   52.5277 C.3     1  ZINC000928803822    0.0900
      4 C4        -11.8878   -2.7002   54.5000 C.ar    1  ZINC000928803822    0.2200
      5 C5        -12.7361   -3.7268   54.8967 C.ar    1  ZINC000928803822   -0.1500
      6 C6        -12.7905   -4.1110   56.2245 C.ar    1  ZINC000928803822   -0.0500
      7 Br7       -13.9477   -5.5095   56.7545 Br      1  ZINC000928803822   -0.0400
      8 C8        -12.0021   -3.4767   57.1640 C.ar    1  ZINC000928803822   -0.1200
      9 C9        -11.1468   -2.4443   56.7750 C.ar    1  ZINC000928803822   -0.0800
     10 C10       -10.3015   -1.7634   57.7790 C.2     1  ZINC000928803822    0.5700
     11 O11        -9.2037   -1.3454   57.4665 O.2     1  ZINC000928803822   -0.5100
     12 N12       -10.7481   -1.6062   59.0409 N.am    1  ZINC000928803822   -0.7200
     13 C13        -9.9100   -0.9331   60.0362 C.3     1  ZINC000928803822    0.1100
     14 H14        -9.0215   -0.5299   59.5501 H       1  ZINC000928803822    0.1400
     15 C15        -9.4913   -1.9364   61.1127 C.3     1  ZINC000928803822   -0.0300
     16 C16        -8.8952   -3.1211   60.4742 C.1     1  ZINC000928803822    0.2000
     17 N17        -8.4350   -4.0354   59.9815 N.1     1  ZINC000928803822   -0.4000
     18 C18       -10.7002    0.2071   60.6813 C.3     1  ZINC000928803822    0.4400
     19 F19       -11.8061   -0.3170   61.3590 F       1  ZINC000928803822   -0.1800
     20 F20        -9.8796    0.8899   61.5856 F       1  ZINC000928803822   -0.1700
     21 F21       -11.1373    1.0912   59.6891 F       1  ZINC000928803822   -0.1600
     22 C22       -11.0879   -2.0610   55.4354 C.ar    1  ZINC000928803822   -0.1200
     23 H23        -9.9693   -1.6562   52.4665 H       1  ZINC000928803822    0.0600
     24 H24       -10.0895   -3.4073   52.7628 H       1  ZINC000928803822    0.0700
     25 H25       -10.8718   -2.6907   51.3335 H       1  ZINC000928803822    0.0700
     26 H26       -13.6363   -2.4725   52.0925 H       1  ZINC000928803822    0.0500
     27 H27       -13.5728   -1.1455   53.2772 H       1  ZINC000928803822    0.0700
     28 H28       -12.6772   -1.0140   51.7446 H       1  ZINC000928803822    0.0700
     29 H29       -13.3553   -4.2262   54.1661 H       1  ZINC000928803822    0.1400
     30 H30       -12.0475   -3.7791   58.1998 H       1  ZINC000928803822    0.1300
     31 H31       -11.6247   -1.9387   59.2900 H       1  ZINC000928803822    0.4100
     32 H32        -8.7597   -1.4740   61.7755 H       1  ZINC000928803822    0.1400
     33 H33       -10.3660   -2.2361   61.6900 H       1  ZINC000928803822    0.1300
     34 H34       -10.4281   -1.2629   55.1289 H       1  ZINC000928803822    0.1500
@<TRIPOS>BOND
     1     1     2    1
     2     1    23    1
     3     1    24    1
     4     1    25    1
     5     2     3    1
     6     2     4    1
     7     3    26    1
     8     3    27    1
     9     3    28    1
    10     4    22   ar
    11     4     5   ar
    12     5     6   ar
    13     5    29    1
    14     6     7    1
    15     6     8   ar
    16     8     9   ar
    17     8    30    1
    18     9    10    1
    19     9    22   ar
    20    10    11    2
    21    10    12   am
    22    12    13    1
    23    12    31    1
    24    13    14    1
    25    13    15    1
    26    13    18    1
    27    15    16    1
    28    15    32    1
    29    15    33    1
    30    16    17    3
    31    18    19    1
    32    18    20    1
    33    18    21    1
    34    22    34    1
@<TRIPOS>SUBSTRUCTURE
     1 ZINC000928803822        1 TEMP              0 ****  ****    0 ROOT


##########                                Name:    ZINC000507831344
##########                DOCK_Rotatable_Bonds:                   6
##########                         Heavy_Atoms:                  31
##########                    Molecular_Weight:              422.53
##########                DOCK_Rotatable_Bonds:                   6
##########                       Formal_Charge:          -0.0200002
##########                     HBond_Acceptors:                   8
##########                        HBond_Donors:                   2
##########                         Heavy_Atoms:                  31
##########                          Grid_Score:          -29.063671
##########                     Grid_vdw_energy:          -29.402657
##########                      Grid_es_energy:            0.338985
##########           Internal_energy_repulsive:           24.800924

@<TRIPOS>MOLECULE
ZINC000507831344
 61 64 1 0 0
SMALL
USER_CHARGES


@<TRIPOS>ATOM
      1 C1         -1.3071    5.1725   54.7743 C.3     1  ZINC000507831344   -0.1000
      2 C2         -2.1667    4.4826   53.7465 C.ar    1  ZINC000507831344   -0.0800
      3 C3         -1.7186    4.3308   52.4474 C.ar    1  ZINC000507831344   -0.0800
      4 C4         -2.5472    3.6859   51.5302 C.ar    1  ZINC000507831344    0.0900
      5 N5         -2.1337    3.5092   50.2025 N.am    1  ZINC000507831344   -0.6700
      6 C6         -0.9751    2.8742   49.9362 C.2     1  ZINC000507831344    0.5100
      7 O7         -0.2901    2.4556   50.8455 O.2     1  ZINC000507831344   -0.5100
      8 C8         -0.5306    2.6843   48.5088 C.3     1  ZINC000507831344   -0.1400
      9 C9         -0.6689    1.2101   48.1235 C.3     1  ZINC000507831344   -0.0500
     10 C10        -0.2013    1.0160   46.7040 C.2     1  ZINC000507831344   -0.2200
     11 C11         1.1100    0.7743   46.4408 C.2     1  ZINC000507831344    0.2100
     12 C12         2.1116    0.6976   47.5642 C.3     1  ZINC000507831344   -0.1400
     13 N13         1.5072    0.6022   45.1519 N.pl3   1  ZINC000507831344   -0.3000
     14 N14         2.7597    0.3456   44.5813 N.am    1  ZINC000507831344   -0.5100
     15 C15         2.6107    0.2617   43.2454 C.2     1  ZINC000507831344    0.5500
     16 O16         3.5015    0.0466   42.4394 O.2     1  ZINC000507831344   -0.5400
     17 C17         1.2653    0.4623   42.9401 C.2     1  ZINC000507831344   -0.3500
     18 C18         0.5857    0.6739   44.1376 C.2     1  ZINC000507831344    0.3500
     19 N19        -0.7034    0.9119   44.4067 N.2     1  ZINC000507831344   -0.4800
     20 C20        -1.1144    1.0772   45.6454 C.2     1  ZINC000507831344    0.2500
     21 C21        -2.5712    1.3437   45.9243 C.3     1  ZINC000507831344   -0.1200
     22 C22        -3.7847    3.2209   51.9474 C.ar    1  ZINC000507831344    0.0800
     23 N23        -4.1808    3.3830   53.1957 N.ar    1  ZINC000507831344   -0.4900
     24 C24        -3.4186    3.9856   54.0944 C.ar    1  ZINC000507831344    0.2800
     25 N25        -3.8791    4.1330   55.3999 N.3     1  ZINC000507831344   -0.4800
     26 C26        -5.2280    4.7134   55.4196 C.3     1  ZINC000507831344    0.0600
     27 C27        -5.6422    4.9953   56.8656 C.3     1  ZINC000507831344   -0.1200
     28 C28        -5.6171    3.6881   57.6626 C.3     1  ZINC000507831344   -0.1200
     29 C29        -4.2141    3.0796   57.5858 C.3     1  ZINC000507831344   -0.1100
     30 C30        -3.8412    2.8533   56.1190 C.3     1  ZINC000507831344    0.0900
     31 H31        -4.5513    2.1611   55.6664 H       1  ZINC000507831344    0.0600
     32 C32        -2.4316    2.2639   56.0364 C.3     1  ZINC000507831344   -0.1400
     33 H33        -0.7384    4.4277   55.3311 H       1  ZINC000507831344    0.0700
     34 H34        -0.6200    5.8551   54.2742 H       1  ZINC000507831344    0.0600
     35 H35        -1.9413    5.7334   55.4609 H       1  ZINC000507831344    0.0800
     36 H36        -0.7496    4.7034   52.1500 H       1  ZINC000507831344    0.1500
     37 H37        -2.6814    3.8441   49.4752 H       1  ZINC000507831344    0.4100
     38 H38        -1.1521    3.2917   47.8510 H       1  ZINC000507831344    0.1000
     39 H39         0.5110    2.9898   48.4090 H       1  ZINC000507831344    0.1000
     40 H40        -0.0611    0.6010   48.7926 H       1  ZINC000507831344    0.0900
     41 H41        -1.7133    0.9094   48.2064 H       1  ZINC000507831344    0.1000
     42 H42         2.1834   -0.3311   47.9173 H       1  ZINC000507831344    0.1000
     43 H43         3.0865    1.0274   47.2049 H       1  ZINC000507831344    0.0800
     44 H44         1.7894    1.3411   48.3829 H       1  ZINC000507831344    0.1100
     45 H45         3.5939    0.2458   45.0660 H       1  ZINC000507831344    0.4400
     46 H46         0.8285    0.4553   41.9525 H       1  ZINC000507831344    0.1700
     47 H47        -3.1233    1.3635   44.9846 H       1  ZINC000507831344    0.0900
     48 H48        -2.9691    0.5551   46.5629 H       1  ZINC000507831344    0.1000
     49 H49        -2.6748    2.3053   46.4270 H       1  ZINC000507831344    0.0900
     50 H50        -4.4322    2.7206   51.2427 H       1  ZINC000507831344    0.1600
     51 H51        -5.2310    5.6444   54.8529 H       1  ZINC000507831344    0.0700
     52 H52        -5.9315    4.0126   54.9702 H       1  ZINC000507831344    0.0500
     53 H53        -4.9470    5.7067   57.3113 H       1  ZINC000507831344    0.0700
     54 H54        -6.6495    5.4116   56.8810 H       1  ZINC000507831344    0.0700
     55 H55        -5.8695    3.8912   58.7033 H       1  ZINC000507831344    0.0700
     56 H56        -6.3404    2.9903   57.2409 H       1  ZINC000507831344    0.0600
     57 H57        -3.4964    3.7608   58.0429 H       1  ZINC000507831344    0.0700
     58 H58        -4.2010    2.1272   58.1158 H       1  ZINC000507831344    0.0700
     59 H59        -2.4242    1.2744   56.4934 H       1  ZINC000507831344    0.0600
     60 H60        -2.1319    2.1839   54.9915 H       1  ZINC000507831344    0.0500
     61 H61        -1.7346    2.9138   56.5655 H       1  ZINC000507831344    0.0600
@<TRIPOS>BOND
     1     1     2    1
     2     1    33    1
     3     1    34    1
     4     1    35    1
     5     2    24   ar
     6     2     3   ar
     7     3     4   ar
     8     3    36    1
     9     4     5    1
    10     4    22   ar
    11     5     6   am
    12     5    37    1
    13     6     7    2
    14     6     8    1
    15     8     9    1
    16     8    38    1
    17     8    39    1
    18     9    10    1
    19     9    40    1
    20     9    41    1
    21    10    20    1
    22    10    11    2
    23    11    12    1
    24    11    13    1
    25    12    42    1
    26    12    43    1
    27    12    44    1
    28    13    18    1
    29    13    14    1
    30    14    15   am
    31    14    45    1
    32    15    16    2
    33    15    17    1
    34    17    18    2
    35    17    46    1
    36    18    19    1
    37    19    20    2
    38    20    21    1
    39    21    47    1
    40    21    48    1
    41    21    49    1
    42    22    23   ar
    43    22    50    1
    44    23    24   ar
    45    24    25    1
    46    25    30    1
    47    25    26    1
    48    26    27    1
    49    26    51    1
    50    26    52    1
    51    27    28    1
    52    27    53    1
    53    27    54    1
    54    28    29    1
    55    28    55    1
    56    28    56    1
    57    29    30    1
    58    29    57    1
    59    29    58    1
    60    30    31    1
    61    30    32    1
    62    32    59    1
    63    32    60    1
    64    32    61    1
@<TRIPOS>SUBSTRUCTURE
     1 ZINC000507831344        1 TEMP              0 ****  ****    0 ROOT


##########                                Name:    ZINC000004598904
##########                DOCK_Rotatable_Bonds:                  13
##########                         Heavy_Atoms:                  30
##########                    Molecular_Weight:             412.442
##########                DOCK_Rotatable_Bonds:                  13
##########                       Formal_Charge:          -0.0300005
##########                     HBond_Acceptors:                   8
##########                        HBond_Donors:                   2
##########                         Heavy_Atoms:                  30
##########                          Grid_Score:          -29.058723
##########                     Grid_vdw_energy:          -27.234886
##########                      Grid_es_energy:           -1.823837
##########           Internal_energy_repulsive:           10.215395

@<TRIPOS>MOLECULE
ZINC000004598904
 54 55 1 0 0
SMALL
USER_CHARGES


@<TRIPOS>ATOM
      1 C1         -1.7672    1.2502   45.1284 C.3     1  ZINC000004598904   -0.1500
      2 C2         -0.4302    0.8147   45.7316 C.3     1  ZINC000004598904    0.0600
      3 O3         -0.6003    0.5578   47.1504 O.3     1  ZINC000004598904   -0.3500
      4 C4         -0.4377    1.6031   47.9852 C.2     1  ZINC000004598904    0.5100
      5 O5          0.5980    2.2383   47.9688 O.2     1  ZINC000004598904   -0.5100
      6 C6         -1.5166    1.9759   48.9188 C.ar    1  ZINC000004598904   -0.1500
      7 C7         -1.3649    3.0832   49.7587 C.ar    1  ZINC000004598904   -0.0400
      8 C8         -2.3741    3.4281   50.6288 C.ar    1  ZINC000004598904   -0.1400
      9 C9         -3.5441    2.6763   50.6733 C.ar    1  ZINC000004598904    0.1800
     10 N10        -4.5643    3.0290   51.5556 N.am    1  ZINC000004598904   -0.6700
     11 C11        -4.3291    3.0535   52.8825 C.2     1  ZINC000004598904    0.5200
     12 O12        -3.2300    2.7689   53.3089 O.2     1  ZINC000004598904   -0.5100
     13 C13        -5.4319    3.4347   53.8362 C.3     1  ZINC000004598904   -0.1300
     14 C14        -6.7849    3.0639   53.2257 C.3     1  ZINC000004598904   -0.1300
     15 C15        -7.7894    2.8426   54.3271 C.2     1  ZINC000004598904    0.5200
     16 O16        -8.4543    3.7704   54.7368 O.2     1  ZINC000004598904   -0.5100
     17 N17        -7.9488    1.6137   54.8569 N.am    1  ZINC000004598904   -0.6700
     18 C18        -8.8780    1.4090   55.8758 C.ar    1  ZINC000004598904    0.1800
     19 C19        -8.6458    1.9349   57.1430 C.ar    1  ZINC000004598904   -0.1400
     20 C20        -9.5611    1.7349   58.1514 C.ar    1  ZINC000004598904   -0.0300
     21 C21       -10.7254    1.0026   57.9011 C.ar    1  ZINC000004598904   -0.1500
     22 C22       -11.7085    0.7865   58.9788 C.2     1  ZINC000004598904    0.5100
     23 O23       -12.8975    0.8604   58.7401 O.2     1  ZINC000004598904   -0.5100
     24 O24       -11.2882    0.5071   60.2282 O.3     1  ZINC000004598904   -0.3600
     25 C25       -12.2398   -0.1380   61.1150 C.3     1  ZINC000004598904    0.0600
     26 C26       -11.6506   -0.2173   62.5247 C.3     1  ZINC000004598904   -0.1500
     27 C27       -10.9557    0.4760   56.6266 C.ar    1  ZINC000004598904   -0.0400
     28 C28       -10.0384    0.6842   55.6217 C.ar    1  ZINC000004598904   -0.1600
     29 C29        -3.6986    1.5736   49.8388 C.ar    1  ZINC000004598904   -0.1600
     30 C30        -2.6959    1.2262   48.9621 C.ar    1  ZINC000004598904   -0.0300
     31 H31        -2.1106    2.1586   45.6235 H       1  ZINC000004598904    0.0700
     32 H32        -1.6396    1.4431   44.0631 H       1  ZINC000004598904    0.0800
     33 H33        -2.5039    0.4592   45.2687 H       1  ZINC000004598904    0.0700
     34 H34        -0.0869   -0.0936   45.2364 H       1  ZINC000004598904    0.0700
     35 H35         0.3065    1.6058   45.5912 H       1  ZINC000004598904    0.0700
     36 H36        -0.4569    3.6669   49.7250 H       1  ZINC000004598904    0.1400
     37 H37        -2.2575    4.2832   51.2783 H       1  ZINC000004598904    0.1400
     38 H38        -5.4434    3.2565   51.2145 H       1  ZINC000004598904    0.4200
     39 H39        -5.2993    2.9007   54.7771 H       1  ZINC000004598904    0.1100
     40 H40        -5.3983    4.5086   54.0200 H       1  ZINC000004598904    0.1100
     41 H41        -7.1262    3.8731   52.5801 H       1  ZINC000004598904    0.1100
     42 H42        -6.6812    2.1508   52.6397 H       1  ZINC000004598904    0.1100
     43 H43        -7.4170    0.8716   54.5292 H       1  ZINC000004598904    0.4200
     44 H44        -7.7461    2.5005   57.3356 H       1  ZINC000004598904    0.1400
     45 H45        -9.3798    2.1427   59.1349 H       1  ZINC000004598904    0.1400
     46 H46       -13.1635    0.4402   61.1393 H       1  ZINC000004598904    0.0700
     47 H47       -12.4504   -1.1440   60.7521 H       1  ZINC000004598904    0.0700
     48 H48       -12.3650   -0.7015   63.1905 H       1  ZINC000004598904    0.0800
     49 H49       -10.7269   -0.7955   62.5004 H       1  ZINC000004598904    0.0700
     50 H50       -11.4400    0.7888   62.8876 H       1  ZINC000004598904    0.0700
     51 H51       -11.8539   -0.0904   56.4298 H       1  ZINC000004598904    0.1400
     52 H52       -10.2157    0.2781   54.6368 H       1  ZINC000004598904    0.1400
     53 H53        -4.6080    0.9923   49.8759 H       1  ZINC000004598904    0.1400
     54 H54        -2.8164    0.3702   48.3146 H       1  ZINC000004598904    0.1400
@<TRIPOS>BOND
     1     1     2    1
     2     1    31    1
     3     1    32    1
     4     1    33    1
     5     2     3    1
     6     2    34    1
     7     2    35    1
     8     3     4    1
     9     4     5    2
    10     4     6    1
    11     6    30   ar
    12     6     7   ar
    13     7     8   ar
    14     7    36    1
    15     8     9   ar
    16     8    37    1
    17     9    10    1
    18     9    29   ar
    19    10    11   am
    20    10    38    1
    21    11    12    2
    22    11    13    1
    23    13    14    1
    24    13    39    1
    25    13    40    1
    26    14    15    1
    27    14    41    1
    28    14    42    1
    29    15    16    2
    30    15    17   am
    31    17    18    1
    32    17    43    1
    33    18    28   ar
    34    18    19   ar
    35    19    20   ar
    36    19    44    1
    37    20    21   ar
    38    20    45    1
    39    21    22    1
    40    21    27   ar
    41    22    23    2
    42    22    24    1
    43    24    25    1
    44    25    26    1
    45    25    46    1
    46    25    47    1
    47    26    48    1
    48    26    49    1
    49    26    50    1
    50    27    28   ar
    51    27    51    1
    52    28    52    1
    53    29    30   ar
    54    29    53    1
    55    30    54    1
@<TRIPOS>SUBSTRUCTURE
     1 ZINC000004598904        1 TEMP              0 ****  ****    0 ROOT


##########                                Name:    ZINC000956479608
##########                DOCK_Rotatable_Bonds:                   5
##########                         Heavy_Atoms:                  25
##########                    Molecular_Weight:             345.442
##########                DOCK_Rotatable_Bonds:                   5
##########                       Formal_Charge:          -0.0100001
##########                     HBond_Acceptors:                   6
##########                        HBond_Donors:                   1
##########                         Heavy_Atoms:                  25
##########                          Grid_Score:          -28.971910
##########                     Grid_vdw_energy:          -28.857986
##########                      Grid_es_energy:           -0.113923
##########           Internal_energy_repulsive:           37.690922

@<TRIPOS>MOLECULE
ZINC000956479608
 52 55 1 0 0
SMALL
USER_CHARGES


@<TRIPOS>ATOM
      1 C1        -11.9738   -0.2642   54.4268 C.3     1  ZINC000956479608   -0.0900
      2 C2        -11.8182   -1.3099   53.3527 C.2     1  ZINC000956479608   -0.1100
      3 C3        -12.0440   -2.6560   53.4467 C.2     1  ZINC000956479608   -0.1000
      4 C4        -12.4978   -3.3979   54.6381 C.2     1  ZINC000956479608    0.6100
      5 O5        -12.6582   -4.6017   54.5802 O.2     1  ZINC000956479608   -0.5000
      6 N6        -12.7348   -2.7412   55.7910 N.am    1  ZINC000956479608   -0.7100
      7 C7        -13.1872   -3.4777   56.9739 C.3     1  ZINC000956479608    0.1800
      8 C8        -14.5109   -4.1790   56.6623 C.3     1  ZINC000956479608   -0.1700
      9 C9        -12.1357   -4.5214   57.3577 C.3     1  ZINC000956479608   -0.1500
     10 C10       -10.8028   -3.8192   57.6355 C.3     1  ZINC000956479608    0.1100
     11 N11       -11.0189   -2.7789   58.6502 N.am    1  ZINC000956479608   -0.6100
     12 C12       -10.2674   -2.7437   59.7685 C.2     1  ZINC000956479608    0.5500
     13 O13        -9.4020   -3.5752   59.9439 O.2     1  ZINC000956479608   -0.5400
     14 C14       -10.5023   -1.6713   60.8008 C.3     1  ZINC000956479608   -0.1900
     15 H15       -11.3377   -1.8459   61.4789 H       1  ZINC000956479608    0.1200
     16 C16        -9.2816   -0.9511   61.3584 C.3     1  ZINC000956479608   -0.1100
     17 H17        -8.3188   -1.2610   60.9519 H       1  ZINC000956479608    0.1000
     18 C18        -9.2489   -0.5393   62.8220 C.3     1  ZINC000956479608   -0.0900
     19 C19       -10.5314    0.2027   63.1984 C.3     1  ZINC000956479608   -0.1200
     20 C20       -10.7147    1.3813   62.2355 C.3     1  ZINC000956479608   -0.1200
     21 C21       -11.1725    0.8379   60.8819 C.3     1  ZINC000956479608   -0.0900
     22 C22       -10.2074   -0.2187   60.3961 C.3     1  ZINC000956479608   -0.1100
     23 H23        -9.8153   -0.0667   59.3905 H       1  ZINC000956479608    0.1100
     24 C24       -12.0694   -1.7773   58.4225 C.3     1  ZINC000956479608    0.1000
     25 C25       -13.3881   -2.5023   58.1358 C.3     1  ZINC000956479608   -0.1400
     26 O26       -11.7687   -3.1667   52.2316 O.3     1  ZINC000956479608    0.1200
     27 N27       -11.4186   -2.3056   51.4588 N.2     1  ZINC000956479608   -0.3400
     28 C28       -11.4111   -1.1280   52.0123 C.2     1  ZINC000956479608   -0.0100
     29 H29       -12.9904    0.1285   54.4070 H       1  ZINC000956479608    0.0800
     30 H30       -11.7761   -0.7117   55.4009 H       1  ZINC000956479608    0.0900
     31 H31       -11.2675    0.5468   54.2493 H       1  ZINC000956479608    0.0800
     32 H32       -12.6057   -1.7810   55.8376 H       1  ZINC000956479608    0.4100
     33 H33       -14.3681   -4.8734   55.8343 H       1  ZINC000956479608    0.0800
     34 H34       -14.8476   -4.7270   57.5422 H       1  ZINC000956479608    0.0700
     35 H35       -15.2599   -3.4360   56.3882 H       1  ZINC000956479608    0.0600
     36 H36       -12.4603   -5.0529   58.2522 H       1  ZINC000956479608    0.0800
     37 H37       -12.0101   -5.2295   56.5386 H       1  ZINC000956479608    0.1000
     38 H38       -10.0777   -4.5445   58.0044 H       1  ZINC000956479608    0.0900
     39 H39       -10.4318   -3.3631   56.7177 H       1  ZINC000956479608    0.0600
     40 H40        -9.1525   -1.4292   63.4439 H       1  ZINC000956479608    0.0700
     41 H41        -8.3926    0.1129   62.9931 H       1  ZINC000956479608    0.0700
     42 H42       -11.3827   -0.4729   63.1160 H       1  ZINC000956479608    0.0600
     43 H43       -10.4529    0.5737   64.2203 H       1  ZINC000956479608    0.0700
     44 H44       -11.4684    2.0627   62.6303 H       1  ZINC000956479608    0.0700
     45 H45        -9.7676    1.9079   62.1172 H       1  ZINC000956479608    0.0700
     46 H46       -12.1638    0.3969   60.9863 H       1  ZINC000956479608    0.0700
     47 H47       -11.2167    1.6544   60.1611 H       1  ZINC000956479608    0.0700
     48 H48       -12.1799   -1.1553   59.3108 H       1  ZINC000956479608    0.0900
     49 H49       -11.8017   -1.1546   57.5689 H       1  ZINC000956479608    0.0700
     50 H50       -14.1539   -1.7734   57.8707 H       1  ZINC000956479608    0.0900
     51 H51       -13.7009   -3.0528   59.0231 H       1  ZINC000956479608    0.0900
     52 H52       -11.1388   -0.1951   51.5413 H       1  ZINC000956479608    0.2000
@<TRIPOS>BOND
     1     1     2    1
     2     1    29    1
     3     1    30    1
     4     1    31    1
     5     2    28    1
     6     2     3    2
     7     3     4    1
     8     3    26    1
     9     4     5    2
    10     4     6   am
    11     6     7    1
    12     6    32    1
    13     7    25    1
    14     7     8    1
    15     7     9    1
    16     8    33    1
    17     8    34    1
    18     8    35    1
    19     9    10    1
    20     9    36    1
    21     9    37    1
    22    10    11    1
    23    10    38    1
    24    10    39    1
    25    11    12   am
    26    11    24    1
    27    12    13    2
    28    12    14    1
    29    14    15    1
    30    14    22    1
    31    14    16    1
    32    16    17    1
    33    16    22    1
    34    16    18    1
    35    18    19    1
    36    18    40    1
    37    18    41    1
    38    19    20    1
    39    19    42    1
    40    19    43    1
    41    20    21    1
    42    20    44    1
    43    20    45    1
    44    21    22    1
    45    21    46    1
    46    21    47    1
    47    22    23    1
    48    24    25    1
    49    24    48    1
    50    24    49    1
    51    25    50    1
    52    25    51    1
    53    26    27    1
    54    27    28    2
    55    28    52    1
@<TRIPOS>SUBSTRUCTURE
     1 ZINC000956479608        1 TEMP              0 ****  ****    0 ROOT


##########                                Name:    ZINC000422507946
##########                DOCK_Rotatable_Bonds:                   7
##########                         Heavy_Atoms:                  25
##########                    Molecular_Weight:             364.484
##########                DOCK_Rotatable_Bonds:                   7
##########                       Formal_Charge:          0.00999952
##########                     HBond_Acceptors:                   6
##########                        HBond_Donors:                   1
##########                         Heavy_Atoms:                  25
##########                          Grid_Score:          -28.940071
##########                     Grid_vdw_energy:          -29.010565
##########                      Grid_es_energy:            0.070494
##########           Internal_energy_repulsive:           35.520180

@<TRIPOS>MOLECULE
ZINC000422507946
 50 52 1 0 0
SMALL
USER_CHARGES


@<TRIPOS>ATOM
      1 C1         -9.4049   -1.1210   61.4426 C.3     1  ZINC000422507946   -0.1400
      2 C2         -9.0635   -1.6914   60.0646 C.3     1  ZINC000422507946   -0.0400
      3 H3         -8.0141   -1.5131   59.8298 H       1  ZINC000422507946    0.1100
      4 C4         -9.9699   -1.0660   58.9841 C.3     1  ZINC000422507946   -0.1400
      5 C5        -10.2406   -2.1149   57.8916 C.3     1  ZINC000422507946    0.1400
      6 H6         -9.3409   -2.2742   57.2973 H       1  ZINC000422507946    0.1100
      7 N7        -11.3371   -1.6677   57.0291 N.am    1  ZINC000422507946   -0.6900
      8 C8        -11.1299   -0.6848   56.1306 C.2     1  ZINC000422507946    0.5100
      9 O9        -10.0346   -0.1713   56.0349 O.2     1  ZINC000422507946   -0.5000
     10 C10       -12.2489   -0.2274   55.2520 C.2     1  ZINC000422507946    0.5100
     11 O11       -13.0616    0.5706   55.6705 O.2     1  ZINC000422507946   -0.5200
     12 N12       -12.3554   -0.7013   53.9947 N.am    1  ZINC000422507946   -0.5700
     13 C13       -11.3741   -1.6648   53.4896 C.3     1  ZINC000422507946    0.1400
     14 C14       -10.1473   -0.9299   53.0144 C.ar    1  ZINC000422507946   -0.0800
     15 C15        -9.1530   -1.6110   52.3376 C.ar    1  ZINC000422507946   -0.1100
     16 C16        -8.0267   -0.9382   51.9009 C.ar    1  ZINC000422507946   -0.0900
     17 C17        -7.8941    0.4161   52.1406 C.ar    1  ZINC000422507946   -0.1500
     18 C18        -8.8899    1.0996   52.8181 C.ar    1  ZINC000422507946    0.1000
     19 F19        -8.7612    2.4238   53.0530 F       1  ZINC000422507946   -0.1400
     20 C20       -10.0194    0.4259   53.2502 C.ar    1  ZINC000422507946   -0.1500
     21 C21       -13.4524   -0.2531   53.1334 C.3     1  ZINC000422507946    0.1400
     22 C22       -12.8894    0.3267   51.8194 C.3     1  ZINC000422507946   -0.1200
     23 C23       -12.9518   -0.8582   50.8238 C.3     1  ZINC000422507946   -0.1300
     24 C24       -14.2821   -1.5544   51.2042 C.3     1  ZINC000422507946   -0.1200
     25 C25       -14.3379   -1.4492   52.7422 C.3     1  ZINC000422507946   -0.1600
     26 C26       -10.6368   -3.4285   58.6158 C.3     1  ZINC000422507946   -0.0900
     27 S27        -9.4355   -3.4831   60.0053 S.3     1  ZINC000422507946   -0.2700
     28 H28        -8.7761   -1.5935   62.1974 H       1  ZINC000422507946    0.0700
     29 H29        -9.2287   -0.0454   61.4446 H       1  ZINC000422507946    0.0700
     30 H30       -10.4530   -1.3179   61.6679 H       1  ZINC000422507946    0.0700
     31 H31       -10.9128   -0.7541   59.4334 H       1  ZINC000422507946    0.0900
     32 H32        -9.4729   -0.2008   58.5455 H       1  ZINC000422507946    0.0900
     33 H33       -12.2124   -2.0791   57.1048 H       1  ZINC000422507946    0.4100
     34 H34       -11.0983   -2.3545   54.2874 H       1  ZINC000422507946    0.1100
     35 H35       -11.8073   -2.2234   52.6599 H       1  ZINC000422507946    0.1000
     36 H36        -9.2556   -2.6697   52.1502 H       1  ZINC000422507946    0.1400
     37 H37        -7.2504   -1.4715   51.3726 H       1  ZINC000422507946    0.1300
     38 H38        -7.0140    0.9413   51.8000 H       1  ZINC000422507946    0.1400
     39 H39       -10.7968    0.9580   53.7784 H       1  ZINC000422507946    0.1400
     40 H40       -14.0483    0.4996   53.6494 H       1  ZINC000422507946    0.1100
     41 H41       -13.5098    1.1519   51.4697 H       1  ZINC000422507946    0.0800
     42 H42       -11.8591    0.6548   51.9577 H       1  ZINC000422507946    0.0600
     43 H43       -12.9847   -0.4976   49.7957 H       1  ZINC000422507946    0.0700
     44 H44       -12.1074   -1.5316   50.9713 H       1  ZINC000422507946    0.0600
     45 H45       -15.1275   -1.0331   50.7552 H       1  ZINC000422507946    0.0700
     46 H46       -14.2683   -2.5992   50.8935 H       1  ZINC000422507946    0.0700
     47 H47       -13.9515   -2.3631   53.1933 H       1  ZINC000422507946    0.0900
     48 H48       -15.3637   -1.2766   53.0677 H       1  ZINC000422507946    0.0800
     49 H49       -11.6598   -3.3731   58.9878 H       1  ZINC000422507946    0.1000
     50 H50       -10.5078   -4.2882   57.9582 H       1  ZINC000422507946    0.1100
@<TRIPOS>BOND
     1     1     2    1
     2     1    28    1
     3     1    29    1
     4     1    30    1
     5     2     3    1
     6     2    27    1
     7     2     4    1
     8     4     5    1
     9     4    31    1
    10     4    32    1
    11     5     6    1
    12     5     7    1
    13     5    26    1
    14     7     8   am
    15     7    33    1
    16     8     9    2
    17     8    10    1
    18    10    11    2
    19    10    12   am
    20    12    13    1
    21    12    21    1
    22    13    14    1
    23    13    34    1
    24    13    35    1
    25    14    20   ar
    26    14    15   ar
    27    15    16   ar
    28    15    36    1
    29    16    17   ar
    30    16    37    1
    31    17    18   ar
    32    17    38    1
    33    18    19    1
    34    18    20   ar
    35    20    39    1
    36    21    25    1
    37    21    22    1
    38    21    40    1
    39    22    23    1
    40    22    41    1
    41    22    42    1
    42    23    24    1
    43    23    43    1
    44    23    44    1
    45    24    25    1
    46    24    45    1
    47    24    46    1
    48    25    47    1
    49    25    48    1
    50    26    27    1
    51    26    49    1
    52    26    50    1
@<TRIPOS>SUBSTRUCTURE
     1 ZINC000422507946        1 TEMP              0 ****  ****    0 ROOT


##########                                Name:    ZINC001708427409
##########                DOCK_Rotatable_Bonds:                   6
##########                         Heavy_Atoms:                  24
##########                    Molecular_Weight:             334.505
##########                DOCK_Rotatable_Bonds:                   6
##########                       Formal_Charge:          -0.0200006
##########                     HBond_Acceptors:                   5
##########                        HBond_Donors:                   1
##########                         Heavy_Atoms:                  24
##########                          Grid_Score:          -28.871969
##########                     Grid_vdw_energy:          -27.823509
##########                      Grid_es_energy:           -1.048460
##########           Internal_energy_repulsive:           22.510946

@<TRIPOS>MOLECULE
ZINC001708427409
 58 60 1 0 0
SMALL
USER_CHARGES


@<TRIPOS>ATOM
      1 C1         -8.7780   -3.4333   59.8209 C.3     1  ZINC001708427409   -0.1500
      2 C2         -9.4636   -2.5702   60.8819 C.3     1  ZINC001708427409   -0.1200
      3 C3         -9.7724   -1.1911   60.2958 C.3     1  ZINC001708427409    0.0000
      4 H4         -8.8684   -0.7741   59.8520 H       1  ZINC001708427409    0.0800
      5 C5        -10.2694   -0.2643   61.4071 C.3     1  ZINC001708427409   -0.1400
      6 C6        -10.8371   -1.3220   59.2373 C.2     1  ZINC001708427409    0.1800
      7 N7        -12.0559   -1.7468   59.4163 N.2     1  ZINC001708427409   -0.2800
      8 N8        -12.6961   -1.7312   58.3019 N.2     1  ZINC001708427409   -0.3200
      9 C9        -11.9138   -1.2920   57.3444 C.2     1  ZINC001708427409    0.3600
     10 N10       -12.2529   -1.1365   56.0097 N.3     1  ZINC001708427409   -0.4200
     11 C11       -13.4346   -0.2425   55.8599 C.3     1  ZINC001708427409    0.0400
     12 C12       -14.0283   -0.6021   54.4802 C.3     1  ZINC001708427409   -0.0900
     13 H13       -13.6818    0.1018   53.7237 H       1  ZINC001708427409    0.0900
     14 C14       -15.5570   -0.6035   54.5434 C.3     1  ZINC001708427409   -0.1500
     15 C15       -13.4977   -2.0282   54.1734 C.3     1  ZINC001708427409   -0.0800
     16 H16       -14.3183   -2.7222   53.9924 H       1  ZINC001708427409    0.0900
     17 C17       -12.5930   -1.9171   52.9458 C.3     1  ZINC001708427409   -0.1100
     18 C18       -11.7930   -3.2082   52.7749 C.3     1  ZINC001708427409   -0.1200
     19 C19       -10.8448   -3.3508   53.9635 C.3     1  ZINC001708427409   -0.1100
     20 C20       -11.6215   -3.4210   55.2625 C.3     1  ZINC001708427409   -0.1000
     21 C21       -12.7206   -2.4138   55.4294 C.3     1  ZINC001708427409    0.1000
     22 H22       -13.4344   -2.8328   56.1387 H       1  ZINC001708427409    0.0600
     23 N23       -10.7051   -1.0116   57.9122 N.pl3   1  ZINC001708427409   -0.4700
     24 C24        -9.5106   -0.4945   57.2397 C.3     1  ZINC001708427409    0.0800
     25 C25        -9.4636    1.0280   57.3827 C.3     1  ZINC001708427409    0.1200
     26 C26        -8.3638    1.5912   56.4804 C.3     1  ZINC001708427409   -0.1800
     27 C27       -10.8131    1.6207   56.9725 C.3     1  ZINC001708427409   -0.1500
     28 O28        -9.1864    1.3704   58.7422 O.3     1  ZINC001708427409   -0.5400
     29 H29        -7.8497   -2.9554   59.5079 H       1  ZINC001708427409    0.0600
     30 H30        -8.5579   -4.4158   60.2385 H       1  ZINC001708427409    0.0600
     31 H31        -9.4379   -3.5438   58.9605 H       1  ZINC001708427409    0.0500
     32 H32       -10.3918   -3.0481   61.1949 H       1  ZINC001708427409    0.0700
     33 H33        -8.8037   -2.4597   61.7423 H       1  ZINC001708427409    0.0800
     34 H34        -9.4994   -0.1695   62.1726 H       1  ZINC001708427409    0.0700
     35 H35       -10.4894    0.7183   60.9894 H       1  ZINC001708427409    0.0500
     36 H36       -11.1735   -0.6812   61.8507 H       1  ZINC001708427409    0.0700
     37 H37       -14.1612   -0.4383   56.6485 H       1  ZINC001708427409    0.0600
     38 H38       -13.1248    0.8025   55.8791 H       1  ZINC001708427409    0.0800
     39 H39       -15.9106    0.3924   54.8100 H       1  ZINC001708427409    0.0600
     40 H40       -15.9606   -0.8840   53.5705 H       1  ZINC001708427409    0.0600
     41 H41       -15.8889   -1.3201   55.2947 H       1  ZINC001708427409    0.0600
     42 H42       -13.2044   -1.7496   52.0590 H       1  ZINC001708427409    0.0600
     43 H43       -11.9070   -1.0801   53.0755 H       1  ZINC001708427409    0.0700
     44 H44       -12.4731   -4.0593   52.7449 H       1  ZINC001708427409    0.0600
     45 H45       -11.2172   -3.1626   51.8505 H       1  ZINC001708427409    0.0600
     46 H46       -10.2572   -4.2613   53.8468 H       1  ZINC001708427409    0.0600
     47 H47       -10.1736   -2.4924   53.9925 H       1  ZINC001708427409    0.0600
     48 H48       -12.0670   -4.4127   55.3406 H       1  ZINC001708427409    0.0600
     49 H49       -10.9188   -3.3020   56.0871 H       1  ZINC001708427409    0.0700
     50 H50        -8.6207   -0.9299   57.6941 H       1  ZINC001708427409    0.0900
     51 H51        -9.5454   -0.7593   56.1828 H       1  ZINC001708427409    0.1000
     52 H52        -8.5753    1.3301   55.4435 H       1  ZINC001708427409    0.0700
     53 H53        -8.3302    2.6760   56.5824 H       1  ZINC001708427409    0.0700
     54 H54        -7.4024    1.1690   56.7726 H       1  ZINC001708427409    0.0600
     55 H55       -11.6066    1.1583   57.5596 H       1  ZINC001708427409    0.0700
     56 H56       -10.8076    2.6958   57.1524 H       1  ZINC001708427409    0.0700
     57 H57       -10.9868    1.4305   55.9134 H       1  ZINC001708427409    0.0700
     58 H58        -9.1162    2.3216   58.9017 H       1  ZINC001708427409    0.3800
@<TRIPOS>BOND
     1     1     2    1
     2     1    29    1
     3     1    30    1
     4     1    31    1
     5     2     3    1
     6     2    32    1
     7     2    33    1
     8     3     4    1
     9     3     5    1
    10     3     6    1
    11     5    34    1
    12     5    35    1
    13     5    36    1
    14     6    23    1
    15     6     7    2
    16     7     8    1
    17     8     9    2
    18     9    10    1
    19     9    23    1
    20    10    21    1
    21    10    11    1
    22    11    12    1
    23    11    37    1
    24    11    38    1
    25    12    13    1
    26    12    14    1
    27    12    15    1
    28    14    39    1
    29    14    40    1
    30    14    41    1
    31    15    16    1
    32    15    21    1
    33    15    17    1
    34    17    18    1
    35    17    42    1
    36    17    43    1
    37    18    19    1
    38    18    44    1
    39    18    45    1
    40    19    20    1
    41    19    46    1
    42    19    47    1
    43    20    21    1
    44    20    48    1
    45    20    49    1
    46    21    22    1
    47    23    24    1
    48    24    25    1
    49    24    50    1
    50    24    51    1
    51    25    26    1
    52    25    27    1
    53    25    28    1
    54    26    52    1
    55    26    53    1
    56    26    54    1
    57    27    55    1
    58    27    56    1
    59    27    57    1
    60    28    58    1
@<TRIPOS>SUBSTRUCTURE
     1 ZINC001708427409        1 TEMP              0 ****  ****    0 ROOT


##########                                Name:    ZINC001098311495
##########                DOCK_Rotatable_Bonds:                   8
##########                         Heavy_Atoms:                  24
##########                    Molecular_Weight:             328.454
##########                DOCK_Rotatable_Bonds:                   8
##########                       Formal_Charge:          0.00999987
##########                     HBond_Acceptors:                   4
##########                        HBond_Donors:                   1
##########                         Heavy_Atoms:                  24
##########                          Grid_Score:          -28.689518
##########                     Grid_vdw_energy:          -28.197575
##########                      Grid_es_energy:           -0.491943
##########           Internal_energy_repulsive:           20.850609

@<TRIPOS>MOLECULE
ZINC001098311495
 52 54 1 0 0
SMALL
USER_CHARGES


@<TRIPOS>ATOM
      1 C1        -12.1327   -1.0073   51.9112 C.3     1  ZINC001098311495   -0.1500
      2 C2        -10.8698   -1.8662   52.0023 C.3     1  ZINC001098311495    0.0500
      3 O3         -9.9792   -1.3030   52.9676 O.3     1  ZINC001098311495   -0.2800
      4 C4         -8.9219   -0.5983   52.4926 C.ar    1  ZINC001098311495    0.1900
      5 C5         -8.0454   -1.1810   51.5899 C.ar    1  ZINC001098311495   -0.2200
      6 C6         -6.9657   -0.4645   51.1122 C.ar    1  ZINC001098311495   -0.0500
      7 C7         -6.7536    0.8408   51.5242 C.ar    1  ZINC001098311495   -0.1700
      8 C8         -7.6182    1.4378   52.4162 C.ar    1  ZINC001098311495   -0.0500
      9 C9         -8.7139    0.7244   52.9075 C.ar    1  ZINC001098311495   -0.1800
     10 C10        -9.6435    1.3573   53.8626 C.2     1  ZINC001098311495    0.5600
     11 O11       -10.3773    2.2538   53.4934 O.2     1  ZINC001098311495   -0.5200
     12 N12        -9.6791    0.9419   55.1442 N.am    1  ZINC001098311495   -0.7200
     13 C13       -10.6034    1.5692   56.0921 C.3     1  ZINC001098311495    0.1600
     14 H14       -11.3392    2.1759   55.5644 H       1  ZINC001098311495    0.1000
     15 C15        -9.8282    2.4228   57.1255 C.3     1  ZINC001098311495   -0.1200
     16 C16       -10.1686    1.7447   58.4869 C.3     1  ZINC001098311495    0.0500
     17 H17        -9.4698    1.9436   59.2994 H       1  ZINC001098311495    0.1100
     18 C18       -11.6573    2.1034   58.7765 C.3     1  ZINC001098311495   -0.1500
     19 C19       -12.4417    1.2482   57.7515 C.3     1  ZINC001098311495   -0.1500
     20 C20       -11.3086    0.4893   56.9671 C.3     1  ZINC001098311495    0.0400
     21 H21       -11.6219   -0.4179   56.4506 H       1  ZINC001098311495    0.1200
     22 N22       -10.2959    0.3035   58.0670 N.3     1  ZINC001098311495   -0.4900
     23 C23       -10.8455   -0.5154   59.1557 C.3     1  ZINC001098311495    0.0600
     24 C24        -9.8111   -1.5157   59.6033 C.2     1  ZINC001098311495   -0.1600
     25 C25        -9.8715   -2.7542   59.1805 C.2     1  ZINC001098311495   -0.1200
     26 C26        -8.8371   -3.7545   59.6281 C.3     1  ZINC001098311495   -0.1200
     27 C27       -10.9755   -3.1784   58.2466 C.3     1  ZINC001098311495   -0.1200
     28 H28       -12.6230   -0.9779   52.8843 H       1  ZINC001098311495    0.0700
     29 H29       -11.8628    0.0047   51.6096 H       1  ZINC001098311495    0.0700
     30 H30       -12.8120   -1.4370   51.1750 H       1  ZINC001098311495    0.0800
     31 H31       -10.3795   -1.8957   51.0293 H       1  ZINC001098311495    0.0600
     32 H32       -11.1397   -2.8783   52.3040 H       1  ZINC001098311495    0.0600
     33 H33        -8.2044   -2.1982   51.2637 H       1  ZINC001098311495    0.1300
     34 H34        -6.2832   -0.9243   50.4130 H       1  ZINC001098311495    0.1300
     35 H35        -5.9068    1.3934   51.1446 H       1  ZINC001098311495    0.1300
     36 H36        -7.4487    2.4557   52.7350 H       1  ZINC001098311495    0.1300
     37 H37        -9.0928    0.2275   55.4390 H       1  ZINC001098311495    0.4000
     38 H38       -10.1799    3.4544   57.1121 H       1  ZINC001098311495    0.0800
     39 H39        -8.7564    2.3792   56.9324 H       1  ZINC001098311495    0.0800
     40 H40       -11.9279    1.8254   59.7952 H       1  ZINC001098311495    0.0700
     41 H41       -11.8362    3.1653   58.6071 H       1  ZINC001098311495    0.0800
     42 H42       -13.1011    0.5463   58.2621 H       1  ZINC001098311495    0.0700
     43 H43       -13.0095    1.8861   57.0740 H       1  ZINC001098311495    0.0800
     44 H44       -11.7316   -1.0427   58.8020 H       1  ZINC001098311495    0.0500
     45 H45       -11.1156    0.1277   59.9933 H       1  ZINC001098311495    0.0800
     46 H46        -9.0198   -1.2116   60.2725 H       1  ZINC001098311495    0.1100
     47 H47        -8.0003   -3.7491   58.9296 H       1  ZINC001098311495    0.0700
     48 H48        -9.2815   -4.7494   59.6550 H       1  ZINC001098311495    0.0600
     49 H49        -8.4813   -3.4885   60.6234 H       1  ZINC001098311495    0.0600
     50 H50       -11.8600   -3.4430   58.8261 H       1  ZINC001098311495    0.0700
     51 H51       -11.2158   -2.3574   57.5713 H       1  ZINC001098311495    0.0600
     52 H52       -10.6492   -4.0420   57.6670 H       1  ZINC001098311495    0.0600
@<TRIPOS>BOND
     1     1     2    1
     2     1    28    1
     3     1    29    1
     4     1    30    1
     5     2     3    1
     6     2    31    1
     7     2    32    1
     8     3     4    1
     9     4     9   ar
    10     4     5   ar
    11     5     6   ar
    12     5    33    1
    13     6     7   ar
    14     6    34    1
    15     7     8   ar
    16     7    35    1
    17     8     9   ar
    18     8    36    1
    19     9    10    1
    20    10    11    2
    21    10    12   am
    22    12    13    1
    23    12    37    1
    24    13    14    1
    25    13    20    1
    26    13    15    1
    27    15    16    1
    28    15    38    1
    29    15    39    1
    30    16    17    1
    31    16    22    1
    32    16    18    1
    33    18    19    1
    34    18    40    1
    35    18    41    1
    36    19    20    1
    37    19    42    1
    38    19    43    1
    39    20    21    1
    40    20    22    1
    41    22    23    1
    42    23    24    1
    43    23    44    1
    44    23    45    1
    45    24    25    2
    46    24    46    1
    47    25    26    1
    48    25    27    1
    49    26    47    1
    50    26    48    1
    51    26    49    1
    52    27    50    1
    53    27    51    1
    54    27    52    1
@<TRIPOS>SUBSTRUCTURE
     1 ZINC001098311495        1 TEMP              0 ****  ****    0 ROOT


##########                                Name:    ZINC000341804698
##########                DOCK_Rotatable_Bonds:                   7
##########                         Heavy_Atoms:                  24
##########                    Molecular_Weight:             342.318
##########                DOCK_Rotatable_Bonds:                   7
##########                       Formal_Charge:                0.02
##########                     HBond_Acceptors:                   8
##########                        HBond_Donors:                   0
##########                         Heavy_Atoms:                  24
##########                          Grid_Score:          -28.603941
##########                     Grid_vdw_energy:          -28.151369
##########                      Grid_es_energy:           -0.452572
##########           Internal_energy_repulsive:           15.230072

@<TRIPOS>MOLECULE
ZINC000341804698
 41 42 1 0 0
SMALL
USER_CHARGES


@<TRIPOS>ATOM
      1 C1        -10.8729    0.3748   63.4754 C.3     1  ZINC000341804698    0.0300
      2 O2        -10.4285   -0.2470   62.2680 O.3     1  ZINC000341804698   -0.3900
      3 C3        -11.2159    0.0807   61.1214 C.3     1  ZINC000341804698    0.0700
      4 C4        -10.6785   -0.6710   59.9020 C.3     1  ZINC000341804698    0.0400
      5 C5         -9.7071    0.1771   59.1920 C.1     1  ZINC000341804698    0.2200
      6 N6         -8.9575    0.8314   58.6441 N.1     1  ZINC000341804698   -0.4200
      7 C7         -9.9914   -1.9596   60.3594 C.3     1  ZINC000341804698   -0.1200
      8 C8         -9.4245   -2.6922   59.1392 C.3     1  ZINC000341804698    0.1100
      9 N9        -10.5062   -2.8977   58.1663 N.am    1  ZINC000341804698   -0.6000
     10 C10       -10.7733   -4.1284   57.6862 C.2     1  ZINC000341804698    0.5700
     11 O11       -10.1165   -5.0814   58.0577 O.2     1  ZINC000341804698   -0.5200
     12 C12       -11.8650   -4.3193   56.7076 C.ar    1  ZINC000341804698   -0.0900
     13 C13       -13.0720   -4.8942   57.1081 C.ar    1  ZINC000341804698   -0.1100
     14 C14       -14.0889   -5.0710   56.1921 C.ar    1  ZINC000341804698   -0.0800
     15 C15       -13.9163   -4.6803   54.8773 C.ar    1  ZINC000341804698   -0.1700
     16 C16       -12.7189   -4.1079   54.4693 C.ar    1  ZINC000341804698    0.1100
     17 O17       -12.5545   -3.7261   53.1753 O.3     1  ZINC000341804698   -0.3100
     18 C18       -12.2958   -2.3412   52.9355 C.3     1  ZINC000341804698    0.6000
     19 F19       -10.9151   -2.1330   52.8485 F       1  ZINC000341804698   -0.1600
     20 F20       -12.9023   -1.9544   51.7357 F       1  ZINC000341804698   -0.1300
     21 F21       -12.8166   -1.5805   53.9878 F       1  ZINC000341804698   -0.1600
     22 C22       -11.6944   -3.9202   55.3815 C.ar    1  ZINC000341804698   -0.0700
     23 C23       -11.2915   -1.7361   57.7273 C.3     1  ZINC000341804698    0.0900
     24 C24       -11.8374   -1.0144   58.9632 C.3     1  ZINC000341804698   -0.1200
     25 H25       -10.8383    1.4581   63.3604 H       1  ZINC000341804698    0.0400
     26 H26       -11.8960    0.0647   63.6885 H       1  ZINC000341804698    0.0500
     27 H27       -10.2238    0.0758   64.2984 H       1  ZINC000341804698    0.0900
     28 H28       -12.2522   -0.2071   61.2981 H       1  ZINC000341804698    0.0700
     29 H29       -11.1629    1.1541   60.9390 H       1  ZINC000341804698    0.0600
     30 H30        -9.1809   -1.7157   61.0462 H       1  ZINC000341804698    0.1000
     31 H31       -10.7160   -2.5992   60.8635 H       1  ZINC000341804698    0.0900
     32 H32        -8.6352   -2.0919   58.6867 H       1  ZINC000341804698    0.0700
     33 H33        -9.0217   -3.6571   59.4469 H       1  ZINC000341804698    0.1100
     34 H34       -13.2100   -5.2008   58.1345 H       1  ZINC000341804698    0.1400
     35 H35       -15.0223   -5.5163   56.5032 H       1  ZINC000341804698    0.1400
     36 H36       -14.7156   -4.8211   54.1647 H       1  ZINC000341804698    0.1400
     37 H37       -10.7626   -3.4747   55.0656 H       1  ZINC000341804698    0.1500
     38 H38       -10.6544   -1.0579   57.1596 H       1  ZINC000341804698    0.0800
     39 H39       -12.1205   -2.0702   57.1033 H       1  ZINC000341804698    0.1100
     40 H40       -12.5446   -1.6627   59.4805 H       1  ZINC000341804698    0.1000
     41 H41       -12.3409   -0.0975   58.6564 H       1  ZINC000341804698    0.0900
@<TRIPOS>BOND
     1     1     2    1
     2     1    25    1
     3     1    26    1
     4     1    27    1
     5     2     3    1
     6     3     4    1
     7     3    28    1
     8     3    29    1
     9     4    24    1
    10     4     5    1
    11     4     7    1
    12     5     6    3
    13     7     8    1
    14     7    30    1
    15     7    31    1
    16     8     9    1
    17     8    32    1
    18     8    33    1
    19     9    10   am
    20     9    23    1
    21    10    11    2
    22    10    12    1
    23    12    22   ar
    24    12    13   ar
    25    13    14   ar
    26    13    34    1
    27    14    15   ar
    28    14    35    1
    29    15    16   ar
    30    15    36    1
    31    16    17    1
    32    16    22   ar
    33    17    18    1
    34    18    19    1
    35    18    20    1
    36    18    21    1
    37    22    37    1
    38    23    24    1
    39    23    38    1
    40    23    39    1
    41    24    40    1
    42    24    41    1
@<TRIPOS>SUBSTRUCTURE
     1 ZINC000341804698        1 TEMP              0 ****  ****    0 ROOT


##########                                Name:    ZINC001076281847
##########                DOCK_Rotatable_Bonds:                   4
##########                         Heavy_Atoms:                  24
##########                    Molecular_Weight:             362.883
##########                DOCK_Rotatable_Bonds:                   4
##########                       Formal_Charge:         -0.00999959
##########                     HBond_Acceptors:                   7
##########                        HBond_Donors:                   0
##########                         Heavy_Atoms:                  24
##########                          Grid_Score:          -28.588211
##########                     Grid_vdw_energy:          -28.608028
##########                      Grid_es_energy:            0.019818
##########           Internal_energy_repulsive:            6.924861

@<TRIPOS>MOLECULE
ZINC001076281847
 43 46 1 0 0
SMALL
USER_CHARGES


@<TRIPOS>ATOM
      1 C1        -11.2017   -3.2373   52.5829 C.3     1  ZINC001076281847   -0.0900
      2 C2        -11.9406   -3.4995   53.8699 C.2     1  ZINC001076281847    0.1400
      3 N3        -13.2297   -3.6722   53.8918 N.2     1  ZINC001076281847   -0.4600
      4 S4        -13.6713   -3.9379   55.5076 S.3     1  ZINC001076281847    0.2500
      5 C5        -12.0780   -3.8094   56.1437 C.2     1  ZINC001076281847   -0.2100
      6 C6        -11.6581   -3.9391   57.5853 C.3     1  ZINC001076281847    0.1200
      7 N7        -10.3239   -3.3503   57.7615 N.3     1  ZINC001076281847   -0.5000
      8 C8         -9.7350   -3.7541   59.0479 C.3     1  ZINC001076281847    0.0300
      9 C9         -9.0018   -2.5208   59.6084 C.3     1  ZINC001076281847   -0.1000
     10 H10        -7.9345   -2.5135   59.3870 H       1  ZINC001076281847    0.1200
     11 C11        -9.3187   -2.4144   61.1233 C.3     1  ZINC001076281847   -0.1300
     12 C12       -10.7826   -1.9095   61.1051 C.3     1  ZINC001076281847    0.1000
     13 N13       -10.8447   -0.9748   59.9670 N.am    1  ZINC001076281847   -0.6000
     14 C14       -11.7257    0.0357   59.8291 C.2     1  ZINC001076281847    0.5700
     15 O15       -11.6851    0.7471   58.8447 O.2     1  ZINC001076281847   -0.4900
     16 C16       -12.7433    0.2790   60.8769 C.ar    1  ZINC001076281847   -0.0800
     17 C17       -13.8513   -0.5631   61.0121 C.ar    1  ZINC001076281847   -0.1800
     18 C18       -14.7761   -0.2996   62.0037 C.ar    1  ZINC001076281847    0.1000
     19 N19       -14.6252    0.7279   62.8154 N.ar    1  ZINC001076281847   -0.4500
     20 C20       -13.5968    1.5469   62.7237 C.ar    1  ZINC001076281847    0.1100
     21 C21       -12.6200    1.3549   61.7635 C.ar    1  ZINC001076281847   -0.0500
     22 Cl22      -11.2688    2.4392   61.6515 Cl      1  ZINC001076281847   -0.0100
     23 C23        -9.7749   -1.3248   58.9902 C.3     1  ZINC001076281847    0.1000
     24 H24        -9.1228   -0.4733   58.7953 H       1  ZINC001076281847    0.1100
     25 C25       -10.3828   -1.8824   57.6958 C.3     1  ZINC001076281847    0.0200
     26 C26       -11.2815   -3.5730   55.0779 C.2     1  ZINC001076281847   -0.1800
     27 H27       -10.8237   -4.1782   52.1829 H       1  ZINC001076281847    0.0700
     28 H28       -11.8796   -2.7818   51.8610 H       1  ZINC001076281847    0.0800
     29 H29       -10.3674   -2.5624   52.7738 H       1  ZINC001076281847    0.0900
     30 H30       -12.3730   -3.4160   58.2203 H       1  ZINC001076281847    0.1000
     31 H31       -11.6295   -4.9930   57.8619 H       1  ZINC001076281847    0.1000
     32 H32       -10.5208   -4.0653   59.7362 H       1  ZINC001076281847    0.0600
     33 H33        -9.0286   -4.5699   58.8946 H       1  ZINC001076281847    0.0900
     34 H34        -9.2482   -3.3891   61.6060 H       1  ZINC001076281847    0.0900
     35 H35        -8.6630   -1.6919   61.6092 H       1  ZINC001076281847    0.0800
     36 H36       -11.4690   -2.7419   60.9503 H       1  ZINC001076281847    0.0800
     37 H37       -11.0168   -1.3913   62.0349 H       1  ZINC001076281847    0.0800
     38 H38       -13.9823   -1.4069   60.3507 H       1  ZINC001076281847    0.1800
     39 H39       -15.6352   -0.9446   62.1153 H       1  ZINC001076281847    0.1700
     40 H40       -13.5135    2.3764   63.4103 H       1  ZINC001076281847    0.1700
     41 H41        -9.8224   -1.5136   56.8366 H       1  ZINC001076281847    0.1000
     42 H42       -11.4253   -1.5743   57.6155 H       1  ZINC001076281847    0.0700
     43 H43       -10.2128   -3.4449   55.1667 H       1  ZINC001076281847    0.1400
@<TRIPOS>BOND
     1     1     2    1
     2     1    27    1
     3     1    28    1
     4     1    29    1
     5     2    26    1
     6     2     3    2
     7     3     4    1
     8     4     5    1
     9     5     6    1
    10     5    26    2
    11     6     7    1
    12     6    30    1
    13     6    31    1
    14     7    25    1
    15     7     8    1
    16     8     9    1
    17     8    32    1
    18     8    33    1
    19     9    10    1
    20     9    23    1
    21     9    11    1
    22    11    12    1
    23    11    34    1
    24    11    35    1
    25    12    13    1
    26    12    36    1
    27    12    37    1
    28    13    14   am
    29    13    23    1
    30    14    15    2
    31    14    16    1
    32    16    21   ar
    33    16    17   ar
    34    17    18   ar
    35    17    38    1
    36    18    19   ar
    37    18    39    1
    38    19    20   ar
    39    20    21   ar
    40    20    40    1
    41    21    22    1
    42    23    24    1
    43    23    25    1
    44    25    41    1
    45    25    42    1
    46    26    43    1
@<TRIPOS>SUBSTRUCTURE
     1 ZINC001076281847        1 TEMP              0 ****  ****    0 ROOT


##########                                Name:    ZINC000822449555
##########                DOCK_Rotatable_Bonds:                   5
##########                         Heavy_Atoms:                  27
##########                    Molecular_Weight:             366.383
##########                DOCK_Rotatable_Bonds:                   5
##########                       Formal_Charge:          -0.0100009
##########                     HBond_Acceptors:                  10
##########                        HBond_Donors:                   2
##########                         Heavy_Atoms:                  27
##########                          Grid_Score:          -28.565969
##########                     Grid_vdw_energy:          -28.289755
##########                      Grid_es_energy:           -0.276214
##########           Internal_energy_repulsive:            6.166298

@<TRIPOS>MOLECULE
ZINC000822449555
 45 48 1 0 0
SMALL
USER_CHARGES


@<TRIPOS>ATOM
      1 C1        -14.3793   -0.3344   55.0824 C.3     1  ZINC000822449555   -0.1100
      2 C2        -13.3859   -0.6904   54.0064 C.ar    1  ZINC000822449555    0.1400
      3 N3        -13.7530   -0.6475   52.7400 N.ar    1  ZINC000822449555   -0.5000
      4 C4        -12.9142   -0.9518   51.7620 C.ar    1  ZINC000822449555    0.3000
      5 N5        -13.3474   -0.8920   50.4403 N.3     1  ZINC000822449555   -0.4700
      6 C6        -13.5709    0.4994   50.0215 C.3     1  ZINC000822449555    0.0200
      7 C7        -13.9874    0.5228   48.5485 C.3     1  ZINC000822449555    0.0600
      8 O8        -15.1522   -0.2886   48.3748 O.3     1  ZINC000822449555   -0.3800
      9 C9        -14.9699   -1.6503   48.7721 C.3     1  ZINC000822449555    0.0600
     10 C10       -14.5633   -1.6957   50.2474 C.3     1  ZINC000822449555    0.0300
     11 C11       -11.6052   -1.3301   52.0401 C.ar    1  ZINC000822449555   -0.1700
     12 C12       -11.1849   -1.3863   53.3563 C.ar    1  ZINC000822449555   -0.0500
     13 C13       -12.0948   -1.0538   54.3587 C.ar    1  ZINC000822449555    0.0600
     14 N14       -11.7127   -1.0968   55.7060 N.am    1  ZINC000822449555   -0.6600
     15 C15       -10.8805   -0.1592   56.2006 C.2     1  ZINC000822449555    0.5700
     16 O16       -10.4610    0.7239   55.4777 O.2     1  ZINC000822449555   -0.5100
     17 C17       -10.4778   -0.2045   57.6209 C.ar    1  ZINC000822449555   -0.1800
     18 C18       -10.0633   -1.4098   58.2038 C.ar    1  ZINC000822449555   -0.0100
     19 C19        -9.6962   -1.4030   59.5352 C.ar    1  ZINC000822449555   -0.1300
     20 C20        -9.7494   -0.2070   60.2497 C.ar    1  ZINC000822449555    0.2300
     21 C21        -9.3568   -0.1909   61.6800 C.2     1  ZINC000822449555    0.2100
     22 N22        -8.7329   -1.1495   62.3365 N.2     1  ZINC000822449555   -0.2500
     23 N23        -8.5732   -0.7548   63.5528 N.pl3   1  ZINC000822449555   -0.2200
     24 N24        -9.0756    0.4227   63.6881 N.2     1  ZINC000822449555   -0.0400
     25 N25        -9.5619    0.8036   62.5558 N.2     1  ZINC000822449555   -0.2500
     26 N26       -10.1465    0.9177   59.6667 N.ar    1  ZINC000822449555   -0.4500
     27 C27       -10.4990    0.9543   58.4004 C.ar    1  ZINC000822449555    0.1400
     28 H28       -14.3267    0.7352   55.2860 H       1  ZINC000822449555    0.0800
     29 H29       -15.3845   -0.5916   54.7484 H       1  ZINC000822449555    0.0800
     30 H30       -14.1452   -0.8892   55.9910 H       1  ZINC000822449555    0.0700
     31 H31       -14.3604    0.9403   50.6300 H       1  ZINC000822449555    0.0600
     32 H32       -12.6508    1.0700   50.1487 H       1  ZINC000822449555    0.1000
     33 H33       -14.2094    1.5471   48.2492 H       1  ZINC000822449555    0.1100
     34 H34       -13.1762    0.1312   47.9347 H       1  ZINC000822449555    0.0600
     35 H35       -15.9024   -2.1976   48.6345 H       1  ZINC000822449555    0.1000
     36 H36       -14.1873   -2.1050   48.1648 H       1  ZINC000822449555    0.0600
     37 H37       -14.3678   -2.7274   50.5396 H       1  ZINC000822449555    0.1000
     38 H38       -15.3688   -1.2898   50.8595 H       1  ZINC000822449555    0.0600
     39 H39       -10.9254   -1.5772   51.2380 H       1  ZINC000822449555    0.1400
     40 H40       -10.1741   -1.6771   53.6018 H       1  ZINC000822449555    0.1500
     41 H41       -12.0473   -1.8013   56.2827 H       1  ZINC000822449555    0.4100
     42 H42       -10.0323   -2.3217   57.6261 H       1  ZINC000822449555    0.1600
     43 H43        -9.3720   -2.3135   60.0171 H       1  ZINC000822449555    0.1600
     44 H44        -8.1419   -1.2648   64.2561 H       1  ZINC000822449555    0.4800
     45 H45       -10.8163    1.8883   57.9608 H       1  ZINC000822449555    0.1700
@<TRIPOS>BOND
     1     1     2    1
     2     1    28    1
     3     1    29    1
     4     1    30    1
     5     2    13   ar
     6     2     3   ar
     7     3     4   ar
     8     4     5    1
     9     4    11   ar
    10     5    10    1
    11     5     6    1
    12     6     7    1
    13     6    31    1
    14     6    32    1
    15     7     8    1
    16     7    33    1
    17     7    34    1
    18     8     9    1
    19     9    10    1
    20     9    35    1
    21     9    36    1
    22    10    37    1
    23    10    38    1
    24    11    12   ar
    25    11    39    1
    26    12    13   ar
    27    12    40    1
    28    13    14    1
    29    14    15   am
    30    14    41    1
    31    15    16    2
    32    15    17    1
    33    17    27   ar
    34    17    18   ar
    35    18    19   ar
    36    18    42    1
    37    19    20   ar
    38    19    43    1
    39    20    21    1
    40    20    26   ar
    41    21    25    1
    42    21    22    2
    43    22    23    1
    44    23    24    1
    45    23    44    1
    46    24    25    2
    47    26    27   ar
    48    27    45    1
@<TRIPOS>SUBSTRUCTURE
     1 ZINC000822449555        1 TEMP              0 ****  ****    0 ROOT


##########                                Name:    ZINC000647468483
##########                DOCK_Rotatable_Bonds:                   5
##########                         Heavy_Atoms:                  24
##########                    Molecular_Weight:             341.373
##########                DOCK_Rotatable_Bonds:                   5
##########                       Formal_Charge:           0.0300004
##########                     HBond_Acceptors:                   6
##########                        HBond_Donors:                   2
##########                         Heavy_Atoms:                  24
##########                          Grid_Score:          -28.565348
##########                     Grid_vdw_energy:          -27.372602
##########                      Grid_es_energy:           -1.192745
##########           Internal_energy_repulsive:           18.967087

@<TRIPOS>MOLECULE
ZINC000647468483
 46 48 1 0 0
SMALL
USER_CHARGES


@<TRIPOS>ATOM
      1 O1        -16.7999    0.8779   60.3491 O.co2   1  ZINC000647468483   -0.6800
      2 C2        -16.8192    0.0213   59.4819 C.2     1  ZINC000647468483    0.5000
      3 O3        -17.3366    0.2571   58.4033 O.co2   1  ZINC000647468483   -0.6900
      4 C4        -16.1980   -1.3272   59.7407 C.3     1  ZINC000647468483   -0.1500
      5 H5        -16.9426   -2.0277   60.1188 H       1  ZINC000647468483    0.0800
      6 C6        -15.0097   -1.2040   60.7265 C.3     1  ZINC000647468483   -0.1100
      7 C7        -14.1386   -2.4410   60.4254 C.3     1  ZINC000647468483   -0.1400
      8 C8        -14.4650   -2.8682   58.9837 C.3     1  ZINC000647468483    0.0100
      9 H9        -14.8672   -3.8812   58.9763 H       1  ZINC000647468483    0.1400
     10 N10       -13.2554   -2.8013   58.1529 N.4     1  ZINC000647468483   -0.5000
     11 H11       -13.3323   -2.0288   57.5083 H       1  ZINC000647468483    0.4200
     12 H12       -12.4486   -2.6672   58.7438 H       1  ZINC000647468483    0.4300
     13 C13       -13.1085   -4.0543   57.4002 C.3     1  ZINC000647468483    0.0200
     14 H14       -13.4330   -4.8967   58.0110 H       1  ZINC000647468483    0.1500
     15 C15       -13.9373   -3.9917   56.1054 C.3     1  ZINC000647468483   -0.1400
     16 C16       -12.9421   -4.1466   54.9370 C.3     1  ZINC000647468483   -0.1300
     17 C17       -11.5865   -3.6876   55.5293 C.3     1  ZINC000647468483   -0.1300
     18 C18       -11.6381   -4.2456   56.9747 C.3     1  ZINC000647468483   -0.0600
     19 H19       -11.3717   -5.3026   56.9852 H       1  ZINC000647468483    0.1300
     20 C20       -10.7184   -3.4622   57.8756 C.ar    1  ZINC000647468483   -0.1200
     21 C21        -9.9543   -4.1183   58.8221 C.ar    1  ZINC000647468483   -0.0700
     22 C22        -9.1107   -3.3997   59.6487 C.ar    1  ZINC000647468483   -0.1000
     23 C23        -9.0311   -2.0251   59.5282 C.ar    1  ZINC000647468483   -0.0600
     24 C24        -9.7948   -1.3689   58.5808 C.ar    1  ZINC000647468483   -0.1600
     25 C25        -9.7083    0.1300   58.4497 C.3     1  ZINC000647468483    0.5000
     26 F26        -9.8143    0.7156   59.7157 F       1  ZINC000647468483   -0.1700
     27 F27        -8.4807    0.4779   57.8761 F       1  ZINC000647468483   -0.1700
     28 F28       -10.7499    0.5877   57.6355 F       1  ZINC000647468483   -0.1700
     29 C29       -10.6350   -2.0878   57.7516 C.ar    1  ZINC000647468483   -0.1100
     30 C30       -15.5277   -1.8781   58.4577 C.3     1  ZINC000647468483   -0.1200
     31 H31       -14.4502   -0.2880   60.5370 H       1  ZINC000647468483    0.0800
     32 H32       -15.3647   -1.2291   61.7569 H       1  ZINC000647468483    0.0800
     33 H33       -13.0828   -2.1833   60.5085 H       1  ZINC000647468483    0.0700
     34 H34       -14.3822   -3.2469   61.1178 H       1  ZINC000647468483    0.1000
     35 H35       -14.6637   -4.8042   56.0874 H       1  ZINC000647468483    0.1000
     36 H36       -14.4487   -3.0316   56.0354 H       1  ZINC000647468483    0.0900
     37 H37       -12.8863   -5.1877   54.6188 H       1  ZINC000647468483    0.0800
     38 H38       -13.2302   -3.5067   54.1030 H       1  ZINC000647468483    0.0900
     39 H39       -10.7553   -4.1246   54.9761 H       1  ZINC000647468483    0.0900
     40 H40       -11.5170   -2.5998   55.5374 H       1  ZINC000647468483    0.0800
     41 H41       -10.0165   -5.1925   58.9162 H       1  ZINC000647468483    0.1400
     42 H42        -8.5142   -3.9124   60.3887 H       1  ZINC000647468483    0.1500
     43 H43        -8.3727   -1.4637   60.1744 H       1  ZINC000647468483    0.1500
     44 H44       -11.2316   -1.5752   57.0115 H       1  ZINC000647468483    0.1400
     45 H45       -16.2557   -2.3960   57.8333 H       1  ZINC000647468483    0.0900
     46 H46       -15.0534   -1.0694   57.9016 H       1  ZINC000647468483    0.1000
@<TRIPOS>BOND
     1     1     2   ar
     2     2     3   ar
     3     2     4    1
     4     4     5    1
     5     4    30    1
     6     4     6    1
     7     6     7    1
     8     6    31    1
     9     6    32    1
    10     7     8    1
    11     7    33    1
    12     7    34    1
    13     8     9    1
    14     8    10    1
    15     8    30    1
    16    10    11    1
    17    10    12    1
    18    10    13    1
    19    13    14    1
    20    13    18    1
    21    13    15    1
    22    15    16    1
    23    15    35    1
    24    15    36    1
    25    16    17    1
    26    16    37    1
    27    16    38    1
    28    17    18    1
    29    17    39    1
    30    17    40    1
    31    18    19    1
    32    18    20    1
    33    20    29   ar
    34    20    21   ar
    35    21    22   ar
    36    21    41    1
    37    22    23   ar
    38    22    42    1
    39    23    24   ar
    40    23    43    1
    41    24    25    1
    42    24    29   ar
    43    25    26    1
    44    25    27    1
    45    25    28    1
    46    29    44    1
    47    30    45    1
    48    30    46    1
@<TRIPOS>SUBSTRUCTURE
     1 ZINC000647468483        1 TEMP              0 ****  ****    0 ROOT


##########                                Name:    ZINC001318556452
##########                DOCK_Rotatable_Bonds:                   4
##########                         Heavy_Atoms:                  26
##########                    Molecular_Weight:             368.456
##########                DOCK_Rotatable_Bonds:                   4
##########                       Formal_Charge:          -0.0200005
##########                     HBond_Acceptors:                   6
##########                        HBond_Donors:                   1
##########                         Heavy_Atoms:                  26
##########                          Grid_Score:          -28.524879
##########                     Grid_vdw_energy:          -29.007067
##########                      Grid_es_energy:            0.482188
##########           Internal_energy_repulsive:           14.311506

@<TRIPOS>MOLECULE
ZINC001318556452
 46 48 1 0 0
SMALL
USER_CHARGES


@<TRIPOS>ATOM
      1 C1        -12.4132   -0.8485   55.4422 C.3     1  ZINC001318556452   -0.1300
      2 C2        -12.1771   -2.0970   54.6319 C.ar    1  ZINC001318556452   -0.1000
      3 C3        -13.0591   -3.1557   54.7205 C.ar    1  ZINC001318556452   -0.0500
      4 C4        -14.2583   -3.0622   55.6285 C.3     1  ZINC001318556452   -0.4100
      5 S5        -13.8198   -3.6843   57.2751 S.o     1  ZINC001318556452    1.2500
      6 C6        -15.3639   -3.4936   58.2078 C.3     1  ZINC001318556452   -0.4900
      7 O7        -12.8171   -2.8533   57.8439 O.2     1  ZINC001318556452   -0.8400
      8 C8        -12.8435   -4.3015   53.9766 C.ar    1  ZINC001318556452   -0.1200
      9 C9        -11.7443   -4.3915   53.1427 C.ar    1  ZINC001318556452   -0.1000
     10 C10       -10.8576   -3.3366   53.0500 C.ar    1  ZINC001318556452   -0.1200
     11 C11       -11.0746   -2.1819   53.7907 C.ar    1  ZINC001318556452    0.1400
     12 N12       -10.1794   -1.1122   53.6990 N.am    1  ZINC001318556452   -0.6600
     13 C13       -10.3997   -0.1235   52.8099 C.2     1  ZINC001318556452    0.5600
     14 O14       -11.3764   -0.1618   52.0882 O.2     1  ZINC001318556452   -0.5000
     15 C15        -9.4502    1.0111   52.7126 C.2     1  ZINC001318556452   -0.0300
     16 C16        -9.7617    2.2296   53.2451 C.2     1  ZINC001318556452   -0.1600
     17 C17        -8.8050    3.3282   53.1337 C.2     1  ZINC001318556452    0.5300
     18 O18        -9.0821    4.4154   53.6083 O.2     1  ZINC001318556452   -0.5200
     19 N19        -7.6234    3.1572   52.5157 N.am    1  ZINC001318556452   -0.5200
     20 C20        -6.6910    4.2835   52.4258 C.3     1  ZINC001318556452    0.0600
     21 C21        -7.2713    1.9434   51.9653 C.ar    1  ZINC001318556452    0.1800
     22 C22        -6.0425    1.7872   51.3294 C.ar    1  ZINC001318556452   -0.1700
     23 C23        -5.7032    0.5684   50.7836 C.ar    1  ZINC001318556452   -0.0600
     24 C24        -6.5755   -0.5085   50.8610 C.ar    1  ZINC001318556452   -0.1500
     25 C25        -7.7863   -0.3778   51.4802 C.ar    1  ZINC001318556452   -0.0600
     26 C26        -8.1492    0.8477   52.0460 C.ar    1  ZINC001318556452   -0.1100
     27 H27       -13.0268   -0.1538   54.8686 H       1  ZINC001318556452    0.0800
     28 H28       -12.9270   -1.1079   56.3679 H       1  ZINC001318556452    0.0800
     29 H29       -11.4569   -0.3809   55.6762 H       1  ZINC001318556452    0.0700
     30 H30       -14.5754   -2.0222   55.7056 H       1  ZINC001318556452    0.1000
     31 H31       -15.0718   -3.6608   55.2188 H       1  ZINC001318556452    0.1300
     32 H32       -16.1498   -4.0814   57.7336 H       1  ZINC001318556452    0.1100
     33 H33       -15.2162   -3.8421   59.2301 H       1  ZINC001318556452    0.1100
     34 H34       -15.6534   -2.4428   58.2204 H       1  ZINC001318556452    0.0800
     35 H35       -13.5351   -5.1280   54.0474 H       1  ZINC001318556452    0.1200
     36 H36       -11.5787   -5.2878   52.5633 H       1  ZINC001318556452    0.1300
     37 H37        -9.9990   -3.4077   52.3987 H       1  ZINC001318556452    0.1500
     38 H38        -9.3997   -1.0815   54.2752 H       1  ZINC001318556452    0.4100
     39 H39       -10.7076    2.3800   53.7441 H       1  ZINC001318556452    0.1600
     40 H40        -7.1282    5.1568   52.9098 H       1  ZINC001318556452    0.1000
     41 H41        -5.7567    4.0223   52.9227 H       1  ZINC001318556452    0.0800
     42 H42        -6.4942    4.5095   51.3777 H       1  ZINC001318556452    0.0800
     43 H43        -5.3571    2.6193   51.2640 H       1  ZINC001318556452    0.1400
     44 H44        -4.7496    0.4499   50.2906 H       1  ZINC001318556452    0.1300
     45 H45        -6.2950   -1.4573   50.4278 H       1  ZINC001318556452    0.1300
     46 H46        -8.4595   -1.2205   51.5363 H       1  ZINC001318556452    0.1700
@<TRIPOS>BOND
     1     1     2    1
     2     1    27    1
     3     1    28    1
     4     1    29    1
     5     2    11   ar
     6     2     3   ar
     7     3     4    1
     8     3     8   ar
     9     4     5    1
    10     4    30    1
    11     4    31    1
    12     5     6    1
    13     5     7    2
    14     6    32    1
    15     6    33    1
    16     6    34    1
    17     8     9   ar
    18     8    35    1
    19     9    10   ar
    20     9    36    1
    21    10    11   ar
    22    10    37    1
    23    11    12    1
    24    12    13   am
    25    12    38    1
    26    13    14    2
    27    13    15    1
    28    15    26    1
    29    15    16    2
    30    16    17    1
    31    16    39    1
    32    17    18    2
    33    17    19   am
    34    19    20    1
    35    19    21    1
    36    20    40    1
    37    20    41    1
    38    20    42    1
    39    21    26   ar
    40    21    22   ar
    41    22    23   ar
    42    22    43    1
    43    23    24   ar
    44    23    44    1
    45    24    25   ar
    46    24    45    1
    47    25    26   ar
    48    25    46    1
@<TRIPOS>SUBSTRUCTURE
     1 ZINC001318556452        1 TEMP              0 ****  ****    0 ROOT


##########                                Name:    ZINC000942661662
##########                DOCK_Rotatable_Bonds:                   6
##########                         Heavy_Atoms:                  25
##########                    Molecular_Weight:             343.426
##########                DOCK_Rotatable_Bonds:                   6
##########                       Formal_Charge:           0.0399997
##########                     HBond_Acceptors:                   6
##########                        HBond_Donors:                   1
##########                         Heavy_Atoms:                  25
##########                          Grid_Score:          -28.484566
##########                     Grid_vdw_energy:          -28.868834
##########                      Grid_es_energy:            0.384268
##########           Internal_energy_repulsive:           15.938885

@<TRIPOS>MOLECULE
ZINC000942661662
 50 52 1 0 0
SMALL
USER_CHARGES


@<TRIPOS>ATOM
      1 C1         -9.3667    1.3841   56.6678 C.3     1  ZINC000942661662   -0.1700
      2 C2         -8.9397    0.9537   58.0726 C.3     1  ZINC000942661662    0.1000
      3 N3        -10.1298    0.7089   58.8912 N.am    1  ZINC000942661662   -0.6000
      4 C4        -10.8558    1.7467   59.3519 C.2     1  ZINC000942661662    0.6000
      5 O5        -10.5230    2.8864   59.0881 O.2     1  ZINC000942661662   -0.5200
      6 C6        -12.0530    1.5006   60.1754 C.2     1  ZINC000942661662   -0.2400
      7 C7        -13.3550    1.5405   59.7702 C.2     1  ZINC000942661662    0.0700
      8 C8        -13.8352    1.8494   58.3756 C.3     1  ZINC000942661662   -0.0900
      9 O9        -14.1324    1.2588   60.8203 O.3     1  ZINC000942661662   -0.1700
     10 C10       -13.3925    1.0315   61.9167 C.2     1  ZINC000942661662   -0.0300
     11 C11       -12.0935    1.1547   61.6037 C.2     1  ZINC000942661662   -0.1900
     12 C12       -10.5305   -0.6639   59.2090 C.3     1  ZINC000942661662    0.1400
     13 H13       -11.5319   -0.6868   59.6389 H       1  ZINC000942661662    0.1100
     14 C14        -9.5030   -1.3382   60.1559 C.3     1  ZINC000942661662   -0.1400
     15 C15        -9.6687   -2.8384   59.8339 C.3     1  ZINC000942661662    0.1000
     16 N16       -10.2587   -2.9338   58.4907 N.am    1  ZINC000942661662   -0.6200
     17 C17       -10.5797   -4.0772   57.8532 C.2     1  ZINC000942661662    0.6100
     18 O18       -10.3851   -5.1501   58.3933 O.2     1  ZINC000942661662   -0.5200
     19 C19       -11.1636   -4.0281   56.5086 C.2     1  ZINC000942661662   -0.0600
     20 C20       -12.4553   -4.3691   56.1681 C.2     1  ZINC000942661662   -0.0700
     21 C21       -13.5283   -4.8606   57.1051 C.3     1  ZINC000942661662   -0.0900
     22 C22       -12.5824   -4.1723   54.7895 C.2     1  ZINC000942661662   -0.2100
     23 C23       -11.3924   -3.7247   54.3223 C.2     1  ZINC000942661662    0.0500
     24 C24       -11.0868   -3.3837   52.8865 C.3     1  ZINC000942661662   -0.0900
     25 N25       -10.5233   -3.6274   55.3577 N.pl3   1  ZINC000942661662   -0.5400
     26 C26       -10.4431   -1.5716   57.9567 C.3     1  ZINC000942661662    0.0900
     27 H27        -8.4813    1.5661   56.0587 H       1  ZINC000942661662    0.0700
     28 H28        -9.9651    0.5950   56.2123 H       1  ZINC000942661662    0.0600
     29 H29        -9.9580    2.2975   56.7317 H       1  ZINC000942661662    0.0600
     30 H30        -8.3484    0.0403   58.0087 H       1  ZINC000942661662    0.0900
     31 H31        -8.3413    1.7427   58.5282 H       1  ZINC000942661662    0.0800
     32 H32       -13.9079    0.9246   57.8032 H       1  ZINC000942661662    0.0900
     33 H33       -14.8152    2.3239   58.4255 H       1  ZINC000942661662    0.0900
     34 H34       -13.1297    2.5231   57.8893 H       1  ZINC000942661662    0.1000
     35 H35       -13.7804    0.7839   62.8938 H       1  ZINC000942661662    0.2100
     36 H36       -11.2502    1.0324   62.2674 H       1  ZINC000942661662    0.1600
     37 H37        -8.4909   -1.0042   59.9275 H       1  ZINC000942661662    0.1000
     38 H38        -9.7502   -1.1380   61.1985 H       1  ZINC000942661662    0.0900
     39 H39        -8.6960   -3.3300   59.8474 H       1  ZINC000942661662    0.0700
     40 H40       -10.3315   -3.3032   60.5638 H       1  ZINC000942661662    0.0700
     41 H41       -14.0865   -4.0101   57.4966 H       1  ZINC000942661662    0.0700
     42 H42       -14.2059   -5.5228   56.5662 H       1  ZINC000942661662    0.0600
     43 H43       -13.0687   -5.4043   57.9305 H       1  ZINC000942661662    0.0800
     44 H44       -13.4714   -4.3469   54.2015 H       1  ZINC000942661662    0.1400
     45 H45       -11.3128   -2.3327   52.7067 H       1  ZINC000942661662    0.0800
     46 H46       -10.0313   -3.5679   52.6861 H       1  ZINC000942661662    0.0700
     47 H47       -11.6952   -4.0039   52.2283 H       1  ZINC000942661662    0.0900
     48 H48        -9.6020   -3.3303   55.2971 H       1  ZINC000942661662    0.4100
     49 H49       -11.3653   -1.5123   57.3786 H       1  ZINC000942661662    0.0800
     50 H50        -9.5898   -1.2867   57.3413 H       1  ZINC000942661662    0.1000
@<TRIPOS>BOND
     1     1     2    1
     2     1    27    1
     3     1    28    1
     4     1    29    1
     5     2     3    1
     6     2    30    1
     7     2    31    1
     8     3     4   am
     9     3    12    1
    10     4     5    2
    11     4     6    1
    12     6    11    1
    13     6     7    2
    14     7     8    1
    15     7     9    1
    16     8    32    1
    17     8    33    1
    18     8    34    1
    19     9    10    1
    20    10    11    2
    21    10    35    1
    22    11    36    1
    23    12    13    1
    24    12    26    1
    25    12    14    1
    26    14    15    1
    27    14    37    1
    28    14    38    1
    29    15    16    1
    30    15    39    1
    31    15    40    1
    32    16    17   am
    33    16    26    1
    34    17    18    2
    35    17    19    1
    36    19    25    1
    37    19    20    2
    38    20    21    1
    39    20    22    1
    40    21    41    1
    41    21    42    1
    42    21    43    1
    43    22    23    2
    44    22    44    1
    45    23    24    1
    46    23    25    1
    47    24    45    1
    48    24    46    1
    49    24    47    1
    50    25    48    1
    51    26    49    1
    52    26    50    1
@<TRIPOS>SUBSTRUCTURE
     1 ZINC000942661662        1 TEMP              0 ****  ****    0 ROOT


##########                                Name:    ZINC000364058410
##########                DOCK_Rotatable_Bonds:                   5
##########                         Heavy_Atoms:                  25
##########                    Molecular_Weight:             358.464
##########                DOCK_Rotatable_Bonds:                   5
##########                       Formal_Charge:           0.0100002
##########                     HBond_Acceptors:                   7
##########                        HBond_Donors:                   0
##########                         Heavy_Atoms:                  25
##########                          Grid_Score:          -28.466480
##########                     Grid_vdw_energy:          -27.810776
##########                      Grid_es_energy:           -0.655705
##########           Internal_energy_repulsive:           65.413513

@<TRIPOS>MOLECULE
ZINC000364058410
 47 50 1 0 0
SMALL
USER_CHARGES


@<TRIPOS>ATOM
      1 C1        -10.0933   -1.6022   52.3918 C.3     1  ZINC000364058410   -0.0700
      2 C2        -11.2446   -2.3547   53.0078 C.2     1  ZINC000364058410   -0.2500
      3 C3        -12.5585   -2.0849   52.8293 C.2     1  ZINC000364058410    0.0800
      4 N4        -13.2641   -2.9830   53.5481 N.pl3   1  ZINC000364058410   -0.3600
      5 C5        -14.7243   -3.0566   53.6408 C.3     1  ZINC000364058410    0.1300
      6 C6        -15.2325   -4.2276   54.5013 C.3     1  ZINC000364058410    0.1100
      7 N7        -15.1852   -3.2839   55.6349 N.am    1  ZINC000364058410   -0.6500
      8 C8        -15.0638   -3.4172   56.9705 C.2     1  ZINC000364058410    0.5600
      9 O9        -14.9620   -4.5209   57.4629 O.2     1  ZINC000364058410   -0.5000
     10 C10       -15.0545   -2.1951   57.8521 C.3     1  ZINC000364058410    0.1400
     11 H11       -15.4257   -1.3372   57.2913 H       1  ZINC000364058410    0.0900
     12 C12       -15.9479   -2.4358   59.0731 C.3     1  ZINC000364058410   -0.1200
     13 C13       -15.8254   -1.2491   60.0317 C.3     1  ZINC000364058410   -0.1200
     14 C14       -14.3769   -1.1248   60.5099 C.3     1  ZINC000364058410   -0.1400
     15 C15       -13.4659   -0.8692   59.3051 C.3     1  ZINC000364058410    0.1000
     16 N16       -13.6843   -1.9285   58.3103 N.am    1  ZINC000364058410   -0.6000
     17 C17       -12.6480   -2.6451   57.8314 C.2     1  ZINC000364058410    0.5900
     18 O18       -12.8420   -3.5198   57.0078 O.2     1  ZINC000364058410   -0.4900
     19 C19       -11.2873   -2.3709   58.3027 C.2     1  ZINC000364058410   -0.2600
     20 C20       -10.5358   -1.2811   57.9642 C.2     1  ZINC000364058410   -0.0600
     21 C21        -9.2925   -1.2747   58.5507 C.2     1  ZINC000364058410   -0.1400
     22 C22        -9.0328   -2.3219   59.3423 C.2     1  ZINC000364058410   -0.2400
     23 S23       -10.3638   -3.3878   59.4002 S.3     1  ZINC000364058410    0.2100
     24 C24       -15.3242   -2.1354   54.7186 C.3     1  ZINC000364058410    0.0900
     25 N25       -12.3537   -3.8328   54.1895 N.2     1  ZINC000364058410   -0.3000
     26 C26       -11.1438   -3.4590   53.8602 C.2     1  ZINC000364058410    0.0500
     27 H27        -9.8388   -2.0501   51.4313 H       1  ZINC000364058410    0.0600
     28 H28       -10.3781   -0.5606   52.2430 H       1  ZINC000364058410    0.0600
     29 H29        -9.2302   -1.6515   53.0558 H       1  ZINC000364058410    0.0600
     30 H30       -12.9689   -1.2927   52.2206 H       1  ZINC000364058410    0.1700
     31 H31       -15.2162   -2.9763   52.6715 H       1  ZINC000364058410    0.1300
     32 H32       -16.2397   -4.5563   54.2451 H       1  ZINC000364058410    0.1100
     33 H33       -14.5234   -5.0512   54.5854 H       1  ZINC000364058410    0.0900
     34 H34       -16.9842   -2.5380   58.7512 H       1  ZINC000364058410    0.0800
     35 H35       -15.6325   -3.3474   59.5805 H       1  ZINC000364058410    0.0800
     36 H36       -16.1174   -0.3342   59.5161 H       1  ZINC000364058410    0.0700
     37 H37       -16.4789   -1.4065   60.8898 H       1  ZINC000364058410    0.0800
     38 H38       -14.2952   -0.2939   61.2106 H       1  ZINC000364058410    0.0800
     39 H39       -14.0764   -2.0488   61.0038 H       1  ZINC000364058410    0.0700
     40 H40       -13.7059    0.0983   58.8643 H       1  ZINC000364058410    0.0800
     41 H41       -12.4243   -0.8784   59.6264 H       1  ZINC000364058410    0.0900
     42 H42       -10.8837   -0.5024   57.3015 H       1  ZINC000364058410    0.1500
     43 H43        -8.5773   -0.4826   58.3843 H       1  ZINC000364058410    0.1500
     44 H44        -8.1060   -2.4703   59.8765 H       1  ZINC000364058410    0.1700
     45 H45       -14.6882   -1.2884   54.9761 H       1  ZINC000364058410    0.0900
     46 H46       -16.3583   -1.8495   54.5262 H       1  ZINC000364058410    0.1100
     47 H47       -10.2258   -3.9190   54.1949 H       1  ZINC000364058410    0.1800
@<TRIPOS>BOND
     1     1     2    1
     2     1    27    1
     3     1    28    1
     4     1    29    1
     5     2    26    1
     6     2     3    2
     7     3     4    1
     8     3    30    1
     9     4     5    1
    10     4    25    1
    11     5    24    1
    12     5     6    1
    13     5    31    1
    14     6     7    1
    15     6    32    1
    16     6    33    1
    17     7     8   am
    18     7    24    1
    19     8     9    2
    20     8    10    1
    21    10    11    1
    22    10    16    1
    23    10    12    1
    24    12    13    1
    25    12    34    1
    26    12    35    1
    27    13    14    1
    28    13    36    1
    29    13    37    1
    30    14    15    1
    31    14    38    1
    32    14    39    1
    33    15    16    1
    34    15    40    1
    35    15    41    1
    36    16    17   am
    37    17    18    2
    38    17    19    1
    39    19    23    1
    40    19    20    2
    41    20    21    1
    42    20    42    1
    43    21    22    2
    44    21    43    1
    45    22    23    1
    46    22    44    1
    47    24    45    1
    48    24    46    1
    49    25    26    2
    50    26    47    1
@<TRIPOS>SUBSTRUCTURE
     1 ZINC000364058410        1 TEMP              0 ****  ****    0 ROOT


##########                                Name:    ZINC000187810810
##########                DOCK_Rotatable_Bonds:                   7
##########                         Heavy_Atoms:                  27
##########                    Molecular_Weight:             386.414
##########                DOCK_Rotatable_Bonds:                   7
##########                       Formal_Charge:           0.0599998
##########                     HBond_Acceptors:                   8
##########                        HBond_Donors:                   1
##########                         Heavy_Atoms:                  27
##########                          Grid_Score:          -28.422661
##########                     Grid_vdw_energy:          -26.950743
##########                      Grid_es_energy:           -1.471917
##########           Internal_energy_repulsive:           46.336296

@<TRIPOS>MOLECULE
ZINC000187810810
 52 53 1 0 0
SMALL
USER_CHARGES


@<TRIPOS>ATOM
      1 C1        -11.4524    0.7796   58.4973 C.3     1  ZINC000187810810   -0.1800
      2 C2        -10.5679   -0.2761   59.1639 C.3     1  ZINC000187810810    0.1400
      3 C3        -10.0063    0.2819   60.4731 C.3     1  ZINC000187810810   -0.1800
      4 C4        -11.3994   -1.5264   59.4574 C.3     1  ZINC000187810810   -0.1400
      5 O5         -9.4725   -0.6208   58.2754 O.3     1  ZINC000187810810   -0.3600
      6 C6         -9.6875   -0.4738   56.9544 C.2     1  ZINC000187810810    0.6500
      7 O7        -10.4521   -1.2209   56.3766 O.2     1  ZINC000187810810   -0.5600
      8 N8         -9.0547    0.5017   56.2730 N.am    1  ZINC000187810810   -0.6000
      9 C9         -8.1213    1.4076   56.9563 C.3     1  ZINC000187810810    0.1100
     10 C10        -8.5415    2.8534   56.6736 C.3     1  ZINC000187810810   -0.1400
     11 C11        -8.6316    3.0677   55.1609 C.3     1  ZINC000187810810    0.1800
     12 C12        -9.0176    4.5202   54.8741 C.3     1  ZINC000187810810   -0.1600
     13 N13        -7.3328    2.7777   54.5486 N.am    1  ZINC000187810810   -0.7100
     14 C14        -7.1743    2.8979   53.2156 C.2     1  ZINC000187810810    0.5500
     15 O15        -8.1095    3.2454   52.5212 O.2     1  ZINC000187810810   -0.5100
     16 C16        -5.8629    2.6070   52.5978 C.ar    1  ZINC000187810810   -0.0900
     17 C17        -4.7095    3.2314   53.0749 C.ar    1  ZINC000187810810   -0.0900
     18 C18        -3.4887    2.9551   52.4941 C.ar    1  ZINC000187810810   -0.0900
     19 C19        -3.4066    2.0618   51.4411 C.ar    1  ZINC000187810810   -0.0900
     20 C20        -4.5465    1.4396   50.9630 C.ar    1  ZINC000187810810   -0.0800
     21 C21        -5.7722    1.7022   51.5386 C.ar    1  ZINC000187810810   -0.1300
     22 C22        -7.0125    1.0235   51.0171 C.3     1  ZINC000187810810    0.5200
     23 F23        -7.7259    0.4704   52.0860 F       1  ZINC000187810810   -0.1800
     24 F24        -7.8143    1.9606   50.3566 F       1  ZINC000187810810   -0.1600
     25 F25        -6.6490    0.0093   50.1246 F       1  ZINC000187810810   -0.1600
     26 C26        -9.6918    2.1330   54.5739 C.3     1  ZINC000187810810   -0.1500
     27 C27        -9.2804    0.6755   54.8316 C.3     1  ZINC000187810810    0.1300
     28 H28       -10.8601    1.6704   58.2882 H       1  ZINC000187810810    0.0900
     29 H29       -11.8525    0.3820   57.5647 H       1  ZINC000187810810    0.0600
     30 H30       -12.2747    1.0384   59.1644 H       1  ZINC000187810810    0.0700
     31 H31       -10.8287    0.5407   61.1402 H       1  ZINC000187810810    0.0700
     32 H32        -9.3763   -0.4701   60.9481 H       1  ZINC000187810810    0.0600
     33 H33        -9.4140    1.1728   60.2640 H       1  ZINC000187810810    0.0900
     34 H34       -11.7994   -1.9240   58.5247 H       1  ZINC000187810810    0.0700
     35 H35       -10.7693   -2.2785   59.9323 H       1  ZINC000187810810    0.0700
     36 H36       -12.2217   -1.2676   60.1245 H       1  ZINC000187810810    0.0800
     37 H37        -8.1514    1.2215   58.0299 H       1  ZINC000187810810    0.1000
     38 H38        -7.1109    1.2410   56.5826 H       1  ZINC000187810810    0.0700
     39 H39        -9.5141    3.0448   57.1268 H       1  ZINC000187810810    0.0900
     40 H40        -7.8030    3.5357   57.0943 H       1  ZINC000187810810    0.0900
     41 H41        -8.2620    5.1860   55.2911 H       1  ZINC000187810810    0.0600
     42 H42        -9.0819    4.6731   53.7967 H       1  ZINC000187810810    0.0800
     43 H43        -9.9838    4.7362   55.3299 H       1  ZINC000187810810    0.0700
     44 H44        -6.5868    2.4993   55.1026 H       1  ZINC000187810810    0.4000
     45 H45        -4.7724    3.9295   53.8965 H       1  ZINC000187810810    0.1400
     46 H46        -2.5954    3.4376   52.8623 H       1  ZINC000187810810    0.1400
     47 H47        -2.4488    1.8493   50.9898 H       1  ZINC000187810810    0.1400
     48 H48        -4.4756    0.7435   50.1404 H       1  ZINC000187810810    0.1500
     49 H49       -10.6536    2.3312   55.0469 H       1  ZINC000187810810    0.0800
     50 H50        -9.7720    2.3026   53.5001 H       1  ZINC000187810810    0.1000
     51 H51        -8.3652    0.4517   54.2835 H       1  ZINC000187810810    0.0700
     52 H52       -10.0773    0.0076   54.5046 H       1  ZINC000187810810    0.1000
@<TRIPOS>BOND
     1     1     2    1
     2     1    28    1
     3     1    29    1
     4     1    30    1
     5     2     3    1
     6     2     4    1
     7     2     5    1
     8     3    31    1
     9     3    32    1
    10     3    33    1
    11     4    34    1
    12     4    35    1
    13     4    36    1
    14     5     6    1
    15     6     7    2
    16     6     8   am
    17     8    27    1
    18     8     9    1
    19     9    10    1
    20     9    37    1
    21     9    38    1
    22    10    11    1
    23    10    39    1
    24    10    40    1
    25    11    12    1
    26    11    13    1
    27    11    26    1
    28    12    41    1
    29    12    42    1
    30    12    43    1
    31    13    14   am
    32    13    44    1
    33    14    15    2
    34    14    16    1
    35    16    21   ar
    36    16    17   ar
    37    17    18   ar
    38    17    45    1
    39    18    19   ar
    40    18    46    1
    41    19    20   ar
    42    19    47    1
    43    20    21   ar
    44    20    48    1
    45    21    22    1
    46    22    23    1
    47    22    24    1
    48    22    25    1
    49    26    27    1
    50    26    49    1
    51    26    50    1
    52    27    51    1
    53    27    52    1
@<TRIPOS>SUBSTRUCTURE
     1 ZINC000187810810        1 TEMP              0 ****  ****    0 ROOT


##########                                Name:    ZINC000338927927
##########                DOCK_Rotatable_Bonds:                   9
##########                         Heavy_Atoms:                  23
##########                    Molecular_Weight:             336.286
##########                DOCK_Rotatable_Bonds:                   9
##########                       Formal_Charge:         -0.00999999
##########                     HBond_Acceptors:                   9
##########                        HBond_Donors:                   2
##########                         Heavy_Atoms:                  23
##########                          Grid_Score:          -28.380447
##########                     Grid_vdw_energy:          -28.132959
##########                      Grid_es_energy:           -0.247488
##########           Internal_energy_repulsive:            8.308082

@<TRIPOS>MOLECULE
ZINC000338927927
 39 39 1 0 0
SMALL
USER_CHARGES


@<TRIPOS>ATOM
      1 C1         -9.2102   -0.6949   62.3687 C.3     1  <0>        -0.1600
      2 C2         -9.4709   -1.6795   61.2270 C.3     1  <0>        -0.1100
      3 C3        -10.7029   -1.2314   60.4383 C.3     1  <0>        -0.1000
      4 H4        -11.5474   -1.1165   61.1179 H       1  <0>         0.1400
      5 C5        -11.0352   -2.2666   59.3948 C.2     1  <0>         0.5200
      6 O6        -10.5710   -3.3839   59.4794 O.2     1  <0>        -0.4700
      7 N7        -11.8482   -1.9508   58.3672 N.am    1  <0>        -0.6700
      8 C8        -12.1568   -2.9118   57.3983 C.ar    1  <0>         0.2200
      9 C9        -13.1656   -3.8366   57.6335 C.ar    1  <0>        -0.2300
     10 C10       -13.4714   -4.7876   56.6754 C.ar    1  <0>         0.1700
     11 F11       -14.4533   -5.6864   56.9064 F       1  <0>        -0.1300
     12 C12       -12.7733   -4.8187   55.4813 C.ar    1  <0>        -0.2500
     13 C13       -11.7633   -3.8952   55.2418 C.ar    1  <0>         0.2600
     14 N14       -11.0585   -3.9272   54.0364 N.pl3   1  <0>        -0.7400
     15 C15       -11.7024   -3.4787   52.7992 C.3     1  <0>         0.0800
     16 C16       -11.4049   -1.9943   52.5786 C.3     1  <0>         0.4500
     17 F17       -10.0395   -1.8250   52.3248 F       1  <0>        -0.1800
     18 F18       -12.1436   -1.5279   51.4859 F       1  <0>        -0.1700
     19 F19       -11.7594   -1.2724   53.7234 F       1  <0>        -0.1800
     20 C20       -11.4587   -2.9377   56.1991 C.ar    1  <0>        -0.2000
     21 C21       -10.4167    0.0863   59.7654 C.2     1  <0>         0.4600
     22 O22       -11.0178    1.0792   60.1011 O.2     1  <0>        -0.4600
     23 O23        -9.4941    0.1569   58.7931 O.3     1  <0>        -0.3500
     24 C24        -9.2940    1.4516   58.1669 C.3     1  <0>         0.0300
     25 H25       -10.0757   -0.6687   63.0308 H       1  <0>         0.0600
     26 H26        -8.3324   -1.0141   62.9305 H       1  <0>         0.0600
     27 H27        -9.0368    0.2999   61.9580 H       1  <0>         0.0800
     28 H28        -8.6053   -1.7057   60.5650 H       1  <0>         0.0800
     29 H29        -9.6444   -2.6742   61.6377 H       1  <0>         0.0800
     30 H30       -12.2195   -1.0572   58.2995 H       1  <0>         0.4200
     31 H31       -13.7117   -3.8141   58.5650 H       1  <0>         0.1400
     32 H32       -13.0135   -5.5615   54.7350 H       1  <0>         0.1400
     33 H33       -10.1428   -4.2463   54.0183 H       1  <0>         0.4100
     34 H34       -11.3162   -4.0555   51.9588 H       1  <0>         0.1100
     35 H35       -12.7796   -3.6258   52.8764 H       1  <0>         0.1100
     36 H36       -10.6739   -2.2191   56.0146 H       1  <0>         0.1500
     37 H37        -8.5233    1.3694   57.4005 H       1  <0>         0.1000
     38 H38       -10.2269    1.7822   57.7101 H       1  <0>         0.0600
     39 H39        -8.9818    2.1751   58.9200 H       1  <0>         0.0600
@<TRIPOS>BOND
     1     1     2    1
     2     1    25    1
     3     1    26    1
     4     1    27    1
     5     2     3    1
     6     2    28    1
     7     2    29    1
     8     3     4    1
     9     3     5    1
    10     3    21    1
    11     5     6    2
    12     5     7   am
    13     7     8    1
    14     7    30    1
    15     8    20   ar
    16     8     9   ar
    17     9    10   ar
    18     9    31    1
    19    10    11    1
    20    10    12   ar
    21    12    13   ar
    22    12    32    1
    23    13    14    1
    24    13    20   ar
    25    14    15    1
    26    14    33    1
    27    15    16    1
    28    15    34    1
    29    15    35    1
    30    16    17    1
    31    16    18    1
    32    16    19    1
    33    20    36    1
    34    21    22    2
    35    21    23    1
    36    23    24    1
    37    24    37    1
    38    24    38    1
    39    24    39    1
@<TRIPOS>SUBSTRUCTURE
     1 <0>         1 TEMP              0 ****  ****    0 ROOT


##########                                Name:    ZINC000876376999
##########                DOCK_Rotatable_Bonds:                   7
##########                         Heavy_Atoms:                  24
##########                    Molecular_Weight:             358.502
##########                DOCK_Rotatable_Bonds:                   7
##########                       Formal_Charge:          -0.0299994
##########                     HBond_Acceptors:                   7
##########                        HBond_Donors:                   2
##########                         Heavy_Atoms:                  24
##########                          Grid_Score:          -28.376587
##########                     Grid_vdw_energy:          -28.218288
##########                      Grid_es_energy:           -0.158298
##########           Internal_energy_repulsive:           30.631447

@<TRIPOS>MOLECULE
ZINC000876376999
 54 56 1 0 0
SMALL
USER_CHARGES


@<TRIPOS>ATOM
      1 C1         -9.6479    0.8581   63.1354 C.3     1  ZINC000876376999   -0.1500
      2 C2        -10.8299    0.0014   62.6774 C.3     1  ZINC000876376999   -0.1100
      3 C3        -10.5536   -0.5400   61.2734 C.3     1  ZINC000876376999   -0.0700
      4 C4        -10.2674    0.6252   60.3240 C.3     1  ZINC000876376999    0.0900
      5 O5        -11.2294    1.6603   60.5367 O.3     1  ZINC000876376999   -0.5600
      6 C6         -9.3425   -1.4746   61.3154 C.3     1  ZINC000876376999   -0.1100
      7 C7         -9.0451   -1.9909   59.9057 C.3     1  ZINC000876376999   -0.1400
      8 C8        -10.2506   -2.7845   59.3920 C.3     1  ZINC000876376999    0.1100
      9 N9        -11.4481   -1.9382   59.4847 N.am    1  ZINC000876376999   -0.6300
     10 C10       -12.2310   -1.7357   58.4065 C.2     1  ZINC000876376999    0.7100
     11 O11       -13.2194   -1.0333   58.4960 O.2     1  ZINC000876376999   -0.5800
     12 N12       -11.9183   -2.3121   57.2289 N.am    1  ZINC000876376999   -0.7500
     13 C13       -12.7693   -2.0920   56.0569 C.3     1  ZINC000876376999    0.1400
     14 C14       -11.9968   -2.4676   54.7865 C.3     1  ZINC000876376999   -0.1100
     15 C15       -12.7473   -3.5120   54.0059 C.3     1  ZINC000876376999   -0.1100
     16 C16       -13.5741   -2.9990   52.8210 C.3     1  ZINC000876376999   -0.5200
     17 H17       -14.1282   -3.7893   52.2956 H       1  ZINC000876376999    0.1500
     18 C18       -14.4852   -1.8654   53.3447 C.3     1  ZINC000876376999   -0.1200
     19 C19       -13.7346   -0.5397   53.4093 C.3     1  ZINC000876376999   -0.1200
     20 C20       -12.2727   -0.7010   52.9329 C.3     1  ZINC000876376999   -0.5300
     21 H21       -11.8600    0.2164   52.4905 H       1  ZINC000876376999    0.1500
     22 C22       -11.4569   -1.2334   54.1167 C.3     1  ZINC000876376999   -0.1000
     23 S23       -12.3951   -2.0936   51.7343 S.o2    1  ZINC000876376999    2.3700
     24 O24       -11.1593   -2.7899   51.6624 O.2     1  ZINC000876376999   -0.9300
     25 O25       -13.0521   -1.6639   50.5501 O.2     1  ZINC000876376999   -0.9300
     26 C26       -11.7762   -1.3170   60.7752 C.3     1  ZINC000876376999    0.1400
     27 H27        -8.7612    0.2316   63.2328 H       1  ZINC000876376999    0.0500
     28 H28        -9.4605    1.6412   62.4008 H       1  ZINC000876376999    0.0600
     29 H29        -9.8798    1.3118   64.0990 H       1  ZINC000876376999    0.0500
     30 H30       -10.9643   -0.8312   63.3679 H       1  ZINC000876376999    0.0600
     31 H31       -11.7344    0.6093   62.6609 H       1  ZINC000876376999    0.0700
     32 H32        -9.2673    1.0136   60.5164 H       1  ZINC000876376999    0.0500
     33 H33       -10.3299    0.2774   59.2928 H       1  ZINC000876376999    0.0400
     34 H34       -11.1149    2.4283   59.9604 H       1  ZINC000876376999    0.3800
     35 H35        -8.4768   -0.9305   61.6930 H       1  ZINC000876376999    0.0700
     36 H36        -9.5567   -2.3171   61.9731 H       1  ZINC000876376999    0.0700
     37 H37        -8.8552   -1.1475   59.2420 H       1  ZINC000876376999    0.0700
     38 H38        -8.1684   -2.6380   59.9326 H       1  ZINC000876376999    0.0800
     39 H39       -10.0844   -3.0700   58.3534 H       1  ZINC000876376999    0.0700
     40 H40       -10.3866   -3.6778   60.0015 H       1  ZINC000876376999    0.0700
     41 H41       -11.1299   -2.8726   57.1575 H       1  ZINC000876376999    0.3900
     42 H42       -13.6628   -2.7113   56.1352 H       1  ZINC000876376999    0.0800
     43 H43       -13.0580   -1.0419   56.0094 H       1  ZINC000876376999    0.0700
     44 H44       -11.0858   -3.0026   55.1779 H       1  ZINC000876376999    0.0900
     45 H45       -12.0295   -4.2634   53.6330 H       1  ZINC000876376999    0.0900
     46 H46       -13.4186   -4.0580   54.6914 H       1  ZINC000876376999    0.0900
     47 H47       -15.3322   -1.7519   52.6610 H       1  ZINC000876376999    0.0800
     48 H48       -14.8702   -2.1217   54.3274 H       1  ZINC000876376999    0.0900
     49 H49       -14.2395    0.1777   52.7550 H       1  ZINC000876376999    0.0800
     50 H50       -13.7544   -0.1514   54.4234 H       1  ZINC000876376999    0.0900
     51 H51       -11.3638   -0.4298   54.8680 H       1  ZINC000876376999    0.0900
     52 H52       -10.4282   -1.4361   53.7705 H       1  ZINC000876376999    0.0900
     53 H53       -12.0365   -2.0908   61.4974 H       1  ZINC000876376999    0.0600
     54 H54       -12.6165   -0.6344   60.6490 H       1  ZINC000876376999    0.1000
@<TRIPOS>BOND
     1     1     2    1
     2     1    27    1
     3     1    28    1
     4     1    29    1
     5     2     3    1
     6     2    30    1
     7     2    31    1
     8     3    26    1
     9     3     4    1
    10     3     6    1
    11     4     5    1
    12     4    32    1
    13     4    33    1
    14     5    34    1
    15     6     7    1
    16     6    35    1
    17     6    36    1
    18     7     8    1
    19     7    37    1
    20     7    38    1
    21     8     9    1
    22     8    39    1
    23     8    40    1
    24     9    10   am
    25     9    26    1
    26    10    11    2
    27    10    12   am
    28    12    13    1
    29    12    41    1
    30    13    14    1
    31    13    42    1
    32    13    43    1
    33    14    22    1
    34    14    15    1
    35    14    44    1
    36    15    16    1
    37    15    45    1
    38    15    46    1
    39    16    17    1
    40    16    23    1
    41    16    18    1
    42    18    19    1
    43    18    47    1
    44    18    48    1
    45    19    20    1
    46    19    49    1
    47    19    50    1
    48    20    21    1
    49    20    22    1
    50    20    23    1
    51    22    51    1
    52    22    52    1
    53    23    24    2
    54    23    25    2
    55    26    53    1
    56    26    54    1
@<TRIPOS>SUBSTRUCTURE
     1 ZINC000876376999        1 TEMP              0 ****  ****    0 ROOT


##########                                Name:      oleObject5.pdb
##########                DOCK_Rotatable_Bonds:                   5
##########                         Heavy_Atoms:                  24
##########                    Molecular_Weight:             323.438
##########                DOCK_Rotatable_Bonds:                   5
##########                       Formal_Charge:         0.000200074
##########                     HBond_Acceptors:                   4
##########                        HBond_Donors:                   2
##########                         Heavy_Atoms:                  24
##########                          Grid_Score:          -28.368431
##########                     Grid_vdw_energy:          -27.842587
##########                      Grid_es_energy:           -0.525844
##########           Internal_energy_repulsive:           10.942218

@<TRIPOS>MOLECULE
oleObject5.pdb
 49 51 1 0 0
SMALL
NO_CHARGES


@<TRIPOS>ATOM
      1 C         -11.7008   -4.6856   57.1784 C.3     1  UNL        -0.0394
      2 C         -12.6942   -3.8811   58.0112 C.ar    1  UNL        -0.0456
      3 C         -13.9615   -4.4471   58.2531 C.ar    1  UNL        -0.0590
      4 C         -14.9305   -3.7540   58.9920 C.ar    1  UNL        -0.0620
      5 C         -14.6421   -2.4791   59.4937 C.ar    1  UNL        -0.0619
      6 C         -13.3854   -1.9038   59.2576 C.ar    1  UNL        -0.0565
      7 C         -12.3949   -2.5922   58.5251 C.ar    1  UNL        -0.0188
      8 C         -11.0518   -1.8916   58.2784 C.3     1  UNL         0.0906
      9 N         -11.2501   -0.7668   57.3473 N.am    1  UNL        -0.3025
     10 C         -11.0572   -0.8750   55.9818 C.2     1  UNL         0.2156
     11 O         -10.8703   -1.9499   55.4381 O.2     1  UNL        -0.2774
     12 C         -11.3238    0.4299   55.2077 C.3     1  UNL         0.0382
     13 C         -11.8996    0.1459   53.7945 C.3     1  UNL        -0.0292
     14 C         -10.8161   -0.3866   52.8316 C.3     1  UNL        -0.0041
     15 N          -9.6849    0.5531   52.7483 N.4     1  UNL        -0.3167
     16 C          -9.0463    0.8167   54.0501 C.3     1  UNL        -0.0041
     17 C         -10.0667    1.3354   55.0944 C.3     1  UNL        -0.0292
     18 C         -10.3778   -1.4671   59.5945 C.ar    1  UNL         0.0681
     19 N         -10.6532   -0.2174   60.0408 N.ar    1  UNL        -0.2587
     20 C         -10.1013    0.2102   61.1918 C.ar    1  UNL         0.0272
     21 C          -9.2457   -0.5895   61.9634 C.ar    1  UNL        -0.0435
     22 C          -8.9557   -1.8866   61.5171 C.ar    1  UNL        -0.0559
     23 C          -9.5270   -2.3433   60.3143 C.ar    1  UNL        -0.0272
     24 C          -9.2192   -3.7560   59.8339 C.3     1  UNL        -0.0379
     25 H         -12.0606   -5.7057   56.9958 H       1  UNL         0.0280
     26 H         -10.7295   -4.7773   57.6770 H       1  UNL         0.0280
     27 H         -11.5416   -4.2221   56.1988 H       1  UNL         0.0280
     28 H         -14.2018   -5.4316   57.8610 H       1  UNL         0.0626
     29 H         -15.9039   -4.2021   59.1695 H       1  UNL         0.0623
     30 H         -15.3917   -1.9347   60.0609 H       1  UNL         0.0623
     31 H         -13.1852   -0.9089   59.6438 H       1  UNL         0.0627
     32 H         -10.3620   -2.5853   57.7887 H       1  UNL         0.0624
     33 H         -11.8921   -0.0496   57.6583 H       1  UNL         0.1504
     34 H         -12.0822    0.9788   55.7809 H       1  UNL         0.0402
     35 H         -12.3111    1.0763   53.3824 H       1  UNL         0.0288
     36 H         -12.7334   -0.5652   53.8467 H       1  UNL         0.0288
     37 H         -11.2525   -0.5304   51.8351 H       1  UNL         0.0428
     38 H         -10.4621   -1.3636   53.1859 H       1  UNL         0.0428
     39 H         -10.0184    1.4347   52.3600 H       1  UNL         0.1222
     40 H          -8.2465    1.5576   53.9253 H       1  UNL         0.0428
     41 H          -8.5818   -0.1064   54.4186 H       1  UNL         0.0428
     42 H         -10.3846    2.3432   54.7977 H       1  UNL         0.0288
     43 H          -9.5820    1.4368   56.0741 H       1  UNL         0.0288
     44 H         -10.3529    1.2231   61.5038 H       1  UNL         0.0840
     45 H          -8.8185   -0.2120   62.8876 H       1  UNL         0.0639
     46 H          -8.2982   -2.5266   62.0988 H       1  UNL         0.0627
     47 H          -8.5446   -4.2792   60.5230 H       1  UNL         0.0280
     48 H          -8.7329   -3.7424   58.8508 H       1  UNL         0.0280
     49 H         -10.1347   -4.3551   59.7582 H       1  UNL         0.0280
@<TRIPOS>BOND
     1     1     2    1
     2     1    25    1
     3     1    26    1
     4     1    27    1
     5     2     3   ar
     6     2     7   ar
     7     3     4   ar
     8     3    28    1
     9     4     5   ar
    10     4    29    1
    11     5     6   ar
    12     5    30    1
    13     6     7   ar
    14     6    31    1
    15     7     8    1
    16     8     9    1
    17     8    18    1
    18     8    32    1
    19     9    10   am
    20     9    33    1
    21    10    11    2
    22    10    12    1
    23    12    13    1
    24    12    17    1
    25    12    34    1
    26    13    14    1
    27    13    35    1
    28    13    36    1
    29    14    15    1
    30    14    37    1
    31    14    38    1
    32    15    16    1
    33    15    39    1
    34    16    17    1
    35    16    40    1
    36    16    41    1
    37    17    42    1
    38    17    43    1
    39    18    19   ar
    40    18    23   ar
    41    19    20   ar
    42    20    21   ar
    43    20    44    1
    44    21    22   ar
    45    21    45    1
    46    22    23   ar
    47    22    46    1
    48    23    24    1
    49    24    47    1
    50    24    48    1
    51    24    49    1
@<TRIPOS>SUBSTRUCTURE
     1 UNL         1 TEMP              0 ****  ****    0 ROOT


##########                                Name:    ZINC000506388363
##########                DOCK_Rotatable_Bonds:                   5
##########                         Heavy_Atoms:                  29
##########                    Molecular_Weight:             416.858
##########                DOCK_Rotatable_Bonds:                   5
##########                       Formal_Charge:         7.07805e-07
##########                     HBond_Acceptors:                   8
##########                        HBond_Donors:                   1
##########                         Heavy_Atoms:                  29
##########                          Grid_Score:          -28.279682
##########                     Grid_vdw_energy:          -29.030039
##########                      Grid_es_energy:            0.750357
##########           Internal_energy_repulsive:           18.554201

@<TRIPOS>MOLECULE
ZINC000506388363
 48 51 1 0 0
SMALL
USER_CHARGES


@<TRIPOS>ATOM
      1 O1         -8.7637   -1.4504   61.6237 O.2     1  ZINC000506388363   -0.5300
      2 C2         -9.6516   -0.9579   60.9554 C.2     1  ZINC000506388363    0.5600
      3 C3        -10.3914    0.2183   61.4607 C.ar    1  ZINC000506388363   -0.1200
      4 C4        -10.2326    1.4621   60.8480 C.ar    1  ZINC000506388363   -0.0900
      5 C5        -10.9261    2.5562   61.3236 C.ar    1  ZINC000506388363   -0.1100
      6 C6        -11.7771    2.4227   62.4058 C.ar    1  ZINC000506388363   -0.0900
      7 C7        -11.9396    1.1916   63.0188 C.ar    1  ZINC000506388363   -0.0400
      8 Cl8       -13.0104    1.0340   64.3761 Cl      1  ZINC000506388363   -0.0600
      9 C9        -11.2558    0.0880   62.5488 C.ar    1  ZINC000506388363   -0.0600
     10 N10        -9.9579   -1.4806   59.7515 N.am    1  ZINC000506388363   -0.6100
     11 C11        -9.2386   -2.6540   59.2329 C.3     1  ZINC000506388363    0.1000
     12 C12       -10.2677   -3.7014   58.7947 C.3     1  ZINC000506388363    0.0400
     13 N13       -11.2157   -3.0884   57.8546 N.3     1  ZINC000506388363   -0.5300
     14 C14       -12.1134   -4.0985   57.2787 C.3     1  ZINC000506388363    0.1200
     15 C15       -13.4102   -3.4458   56.8744 C.2     1  ZINC000506388363   -0.2100
     16 C16       -14.5514   -3.4285   57.5972 C.2     1  ZINC000506388363    0.0600
     17 N17       -15.4805   -2.7471   56.8932 N.pl3   1  ZINC000506388363   -0.4700
     18 N18       -14.8957   -2.3268   55.6917 N.2     1  ZINC000506388363   -0.2700
     19 C19       -13.6462   -2.7402   55.6783 C.2     1  ZINC000506388363    0.1300
     20 C20       -12.6629   -2.5125   54.5905 C.ar    1  ZINC000506388363   -0.0700
     21 C21       -12.1926   -1.2253   54.3295 C.ar    1  ZINC000506388363    0.1500
     22 F22       -12.6310   -0.1818   55.0671 F       1  ZINC000506388363   -0.1200
     23 C23       -11.2765   -1.0200   53.3144 C.ar    1  ZINC000506388363   -0.1600
     24 C24       -10.8264   -2.0871   52.5588 C.ar    1  ZINC000506388363   -0.0500
     25 C25       -11.2887   -3.3656   52.8124 C.ar    1  ZINC000506388363   -0.1600
     26 C26       -12.2004   -3.5854   53.8283 C.ar    1  ZINC000506388363    0.1600
     27 F27       -12.6511   -4.8349   54.0749 F       1  ZINC000506388363   -0.1200
     28 C28       -11.9793   -2.0094   58.4955 C.3     1  ZINC000506388363    0.0400
     29 C29       -11.0245   -0.8965   58.9242 C.3     1  ZINC000506388363    0.1200
     30 H30        -9.5680    1.5682   60.0034 H       1  ZINC000506388363    0.1400
     31 H31       -10.8037    3.5190   60.8500 H       1  ZINC000506388363    0.1400
     32 H32       -12.3168    3.2824   62.7745 H       1  ZINC000506388363    0.1400
     33 H33       -11.3833   -0.8718   63.0270 H       1  ZINC000506388363    0.1400
     34 H34        -8.6279   -2.3611   58.3788 H       1  ZINC000506388363    0.0800
     35 H35        -8.6036   -3.0695   60.0153 H       1  ZINC000506388363    0.1000
     36 H36        -9.7568   -4.5313   58.3066 H       1  ZINC000506388363    0.0900
     37 H37       -10.8073   -4.0686   59.6676 H       1  ZINC000506388363    0.0400
     38 H38       -11.6431   -4.5454   56.4029 H       1  ZINC000506388363    0.1000
     39 H39       -12.3119   -4.8729   58.0196 H       1  ZINC000506388363    0.0400
     40 H40       -14.6953   -3.8806   58.5674 H       1  ZINC000506388363    0.1800
     41 H41       -16.3944   -2.5782   57.1710 H       1  ZINC000506388363    0.4400
     42 H42       -10.9119   -0.0239   53.1110 H       1  ZINC000506388363    0.1500
     43 H43       -10.1111   -1.9214   51.7669 H       1  ZINC000506388363    0.1500
     44 H44       -10.9335   -4.1947   52.2184 H       1  ZINC000506388363    0.1500
     45 H45       -12.7097   -1.6125   57.7905 H       1  ZINC000506388363    0.0900
     46 H46       -12.4950   -2.4003   59.3727 H       1  ZINC000506388363    0.0400
     47 H47       -11.5690   -0.1486   59.5005 H       1  ZINC000506388363    0.1000
     48 H48       -10.5829   -0.4329   58.0419 H       1  ZINC000506388363    0.0800
@<TRIPOS>BOND
     1     1     2    2
     2     2     3    1
     3     2    10   am
     4     3     9   ar
     5     3     4   ar
     6     4     5   ar
     7     4    30    1
     8     5     6   ar
     9     5    31    1
    10     6     7   ar
    11     6    32    1
    12     7     8    1
    13     7     9   ar
    14     9    33    1
    15    10    29    1
    16    10    11    1
    17    11    12    1
    18    11    34    1
    19    11    35    1
    20    12    13    1
    21    12    36    1
    22    12    37    1
    23    13    14    1
    24    13    28    1
    25    14    15    1
    26    14    38    1
    27    14    39    1
    28    15    19    1
    29    15    16    2
    30    16    17    1
    31    16    40    1
    32    17    18    1
    33    17    41    1
    34    18    19    2
    35    19    20    1
    36    20    26   ar
    37    20    21   ar
    38    21    22    1
    39    21    23   ar
    40    23    24   ar
    41    23    42    1
    42    24    25   ar
    43    24    43    1
    44    25    26   ar
    45    25    44    1
    46    26    27    1
    47    28    29    1
    48    28    45    1
    49    28    46    1
    50    29    47    1
    51    29    48    1
@<TRIPOS>SUBSTRUCTURE
     1 ZINC000506388363        1 TEMP              0 ****  ****    0 ROOT


##########                                Name:    ZINC000478980774
##########                DOCK_Rotatable_Bonds:                   4
##########                         Heavy_Atoms:                  26
##########                    Molecular_Weight:             401.818
##########                DOCK_Rotatable_Bonds:                   4
##########                       Formal_Charge:          -0.0100001
##########                     HBond_Acceptors:                   9
##########                        HBond_Donors:                   1
##########                         Heavy_Atoms:                  26
##########                          Grid_Score:          -28.095602
##########                     Grid_vdw_energy:          -25.973669
##########                      Grid_es_energy:           -2.121933
##########           Internal_energy_repulsive:            6.849380

@<TRIPOS>MOLECULE
ZINC000478980774
 40 42 1 0 0
SMALL
USER_CHARGES


@<TRIPOS>ATOM
      1 C1         -4.2675    5.7952   54.9131 C.3     1  ZINC000478980774   -0.1400
      2 C2         -4.2880    4.3027   54.5774 C.3     1  ZINC000478980774   -0.4600
      3 H3         -5.3125    3.9336   54.6246 H       1  ZINC000478980774    0.1500
      4 C4         -3.7420    4.0926   53.1885 C.2     1  ZINC000478980774    0.5400
      5 O5         -3.8182    4.9809   52.3661 O.2     1  ZINC000478980774   -0.5000
      6 N6         -3.1691    2.9177   52.8602 N.am    1  ZINC000478980774   -0.6600
      7 C7         -2.6616    2.7224   51.5691 C.ar    1  ZINC000478980774    0.1600
      8 C8         -1.3651    3.1147   51.2662 C.ar    1  ZINC000478980774   -0.1200
      9 C9         -0.8631    2.9232   49.9927 C.ar    1  ZINC000478980774   -0.0600
     10 C10        -1.6519    2.3394   49.0153 C.ar    1  ZINC000478980774    0.0100
     11 O11        -1.3992    2.0454   47.7055 O.3     1  ZINC000478980774   -0.2900
     12 C12        -2.4129    1.0976   47.3220 C.3     1  ZINC000478980774    0.5700
     13 F13        -2.7795    1.2840   45.9847 F       1  ZINC000478980774   -0.1100
     14 F14        -1.9655   -0.2116   47.5295 F       1  ZINC000478980774   -0.1500
     15 O15        -3.5155    1.4031   48.1961 O.3     1  ZINC000478980774   -0.2800
     16 C16        -2.9536    1.9442   49.3164 C.ar    1  ZINC000478980774    0.0500
     17 C17        -3.4536    2.1312   50.5938 C.ar    1  ZINC000478980774   -0.0900
     18 S18        -3.2643    3.3999   55.7723 S.o     1  ZINC000478980774    1.3000
     19 O19        -1.9221    3.8587   55.6881 O.2     1  ZINC000478980774   -0.7800
     20 C20        -3.9721    3.8909   57.3688 C.3     1  ZINC000478980774   -0.4300
     21 C21        -3.2172    3.2124   58.4828 C.ar    1  ZINC000478980774   -0.0600
     22 C22        -2.7200    1.9356   58.3032 C.ar    1  ZINC000478980774   -0.1100
     23 C23        -2.0275    1.3129   59.3251 C.ar    1  ZINC000478980774   -0.1100
     24 C24        -1.8324    1.9669   60.5271 C.ar    1  ZINC000478980774   -0.1100
     25 C25        -2.3293    3.2442   60.7080 C.ar    1  ZINC000478980774   -0.1100
     26 C26        -3.0169    3.8699   59.6837 C.ar    1  ZINC000478980774   -0.0300
     27 Cl27       -3.6412    5.4740   59.9101 Cl      1  ZINC000478980774   -0.0600
     28 H28        -4.6624    5.9471   55.9176 H       1  ZINC000478980774    0.0800
     29 H29        -3.2430    6.1642   54.8658 H       1  ZINC000478980774    0.0700
     30 H30        -4.8825    6.3376   54.1951 H       1  ZINC000478980774    0.0700
     31 H31        -3.1084    2.2072   53.5178 H       1  ZINC000478980774    0.4200
     32 H32        -0.7480    3.5706   52.0264 H       1  ZINC000478980774    0.1500
     33 H33         0.1458    3.2295   49.7594 H       1  ZINC000478980774    0.1500
     34 H34        -4.4606    1.8211   50.8306 H       1  ZINC000478980774    0.1600
     35 H35        -3.8948    4.9721   57.4834 H       1  ZINC000478980774    0.1100
     36 H36        -5.0204    3.5954   57.4077 H       1  ZINC000478980774    0.1300
     37 H37        -2.8727    1.4239   57.3645 H       1  ZINC000478980774    0.1400
     38 H38        -1.6391    0.3150   59.1843 H       1  ZINC000478980774    0.1300
     39 H39        -1.2921    1.4798   61.3253 H       1  ZINC000478980774    0.1300
     40 H40        -2.1768    3.7550   61.6472 H       1  ZINC000478980774    0.1300
@<TRIPOS>BOND
     1     1     2    1
     2     1    28    1
     3     1    29    1
     4     1    30    1
     5     2     3    1
     6     2     4    1
     7     2    18    1
     8     4     5    2
     9     4     6   am
    10     6     7    1
    11     6    31    1
    12     7    17   ar
    13     7     8   ar
    14     8     9   ar
    15     8    32    1
    16     9    10   ar
    17     9    33    1
    18    10    16   ar
    19    10    11    1
    20    11    12    1
    21    12    13    1
    22    12    14    1
    23    12    15    1
    24    15    16    1
    25    16    17   ar
    26    17    34    1
    27    18    19    2
    28    18    20    1
    29    20    21    1
    30    20    35    1
    31    20    36    1
    32    21    26   ar
    33    21    22   ar
    34    22    23   ar
    35    22    37    1
    36    23    24   ar
    37    23    38    1
    38    24    25   ar
    39    24    39    1
    40    25    26   ar
    41    25    40    1
    42    26    27    1
@<TRIPOS>SUBSTRUCTURE
     1 ZINC000478980774        1 TEMP              0 ****  ****    0 ROOT


##########                                Name:    ZINC000371438955
##########                DOCK_Rotatable_Bonds:                   4
##########                         Heavy_Atoms:                  25
##########                    Molecular_Weight:             387.499
##########                DOCK_Rotatable_Bonds:                   4
##########                       Formal_Charge:          -0.0299995
##########                     HBond_Acceptors:                   9
##########                        HBond_Donors:                   1
##########                         Heavy_Atoms:                  25
##########                          Grid_Score:          -28.004192
##########                     Grid_vdw_energy:          -27.127268
##########                      Grid_es_energy:           -0.876925
##########           Internal_energy_repulsive:           19.732464

@<TRIPOS>MOLECULE
ZINC000371438955
 47 49 1 0 0
SMALL
USER_CHARGES


@<TRIPOS>ATOM
      1 C1         -9.8232    1.4573   62.5410 C.3     1  ZINC000371438955   -0.6800
      2 S2        -10.5474    1.0537   60.9276 S.o2    1  ZINC000371438955    2.6000
      3 O3        -11.7927    1.7173   60.7601 O.2     1  ZINC000371438955   -0.9500
      4 O4         -9.5545    1.0917   59.9118 O.2     1  ZINC000371438955   -0.9500
      5 N5        -10.9508   -0.5482   61.0448 N.am    1  ZINC000371438955   -0.9900
      6 C6         -9.9167   -1.5069   61.3092 C.3     1  ZINC000371438955    0.1300
      7 C7         -9.2941   -1.9161   59.9638 C.3     1  ZINC000371438955   -0.1700
      8 C8        -10.1364   -2.8829   59.2423 C.3     1  ZINC000371438955    0.1400
      9 N9        -11.4836   -2.3137   59.0016 N.am    1  ZINC000371438955   -0.6200
     10 C10       -11.8060   -1.8396   57.7818 C.2     1  ZINC000371438955    0.7100
     11 O11       -12.9109   -1.3726   57.5836 O.2     1  ZINC000371438955   -0.5800
     12 N12       -10.9035   -1.8832   56.7817 N.am    1  ZINC000371438955   -0.7400
     13 C13       -11.2540   -1.3679   55.4558 C.3     1  ZINC000371438955    0.2000
     14 H14       -12.1720   -0.7863   55.5399 H       1  ZINC000371438955    0.1100
     15 C15       -11.5067   -2.5438   54.5284 C.3     1  ZINC000371438955   -0.1300
     16 C16       -11.9143   -2.0116   53.1474 C.3     1  ZINC000371438955   -0.1100
     17 S17       -10.4255   -1.3148   52.3753 S.3     1  ZINC000371438955   -0.1000
     18 C18        -9.7335   -0.3454   53.6772 C.ar    1  ZINC000371438955   -0.1100
     19 C19        -8.7238    0.5626   53.3455 C.ar    1  ZINC000371438955    0.1100
     20 F20        -8.3220    0.6772   52.0608 F       1  ZINC000371438955   -0.1300
     21 C21        -8.1345    1.3432   54.3182 C.ar    1  ZINC000371438955   -0.1300
     22 C22        -8.5475    1.2201   55.6327 C.ar    1  ZINC000371438955   -0.1000
     23 C23        -9.5444    0.3279   55.9614 C.ar    1  ZINC000371438955   -0.1000
     24 C24       -10.1533   -0.4627   54.9861 C.ar    1  ZINC000371438955   -0.0800
     25 C25       -12.4458   -2.2674   60.0667 C.3     1  ZINC000371438955    0.1000
     26 C26       -12.3754   -0.9463   60.8786 C.3     1  ZINC000371438955    0.0900
     27 H27       -10.5596    1.2793   63.3246 H       1  ZINC000371438955    0.1300
     28 H28        -8.9492    0.8293   62.7144 H       1  ZINC000371438955    0.1300
     29 H29        -9.5253    2.5057   62.5536 H       1  ZINC000371438955    0.1300
     30 H30        -9.1544   -1.0601   61.9475 H       1  ZINC000371438955    0.0800
     31 H31       -10.3424   -2.3822   61.7997 H       1  ZINC000371438955    0.0800
     32 H32        -9.1661   -1.0268   59.3467 H       1  ZINC000371438955    0.0800
     33 H33        -8.3169   -2.3634   60.1463 H       1  ZINC000371438955    0.0900
     34 H34        -9.6709   -3.1245   58.2868 H       1  ZINC000371438955    0.0900
     35 H35       -10.2300   -3.7928   59.8352 H       1  ZINC000371438955    0.0700
     36 H36       -10.0221   -2.2558   56.9398 H       1  ZINC000371438955    0.4000
     37 H37       -10.5975   -3.1380   54.4367 H       1  ZINC000371438955    0.0900
     38 H38       -12.3087   -3.1614   54.9327 H       1  ZINC000371438955    0.1000
     39 H39       -12.3025   -2.8261   52.5359 H       1  ZINC000371438955    0.1200
     40 H40       -12.6723   -1.2360   53.2578 H       1  ZINC000371438955    0.1000
     41 H41        -7.3566    2.0447   54.0556 H       1  ZINC000371438955    0.1400
     42 H42        -8.0879    1.8234   56.4016 H       1  ZINC000371438955    0.1300
     43 H43        -9.8585    0.2380   56.9908 H       1  ZINC000371438955    0.1400
     44 H44       -13.4453   -2.3687   59.6437 H       1  ZINC000371438955    0.0800
     45 H45       -12.2645   -3.1032   60.7423 H       1  ZINC000371438955    0.0900
     46 H46       -12.8335   -1.0957   61.8563 H       1  ZINC000371438955    0.0800
     47 H47       -12.9095   -0.1615   60.3428 H       1  ZINC000371438955    0.1000
@<TRIPOS>BOND
     1     1     2    1
     2     1    27    1
     3     1    28    1
     4     1    29    1
     5     2     3    2
     6     2     4    2
     7     2     5   am
     8     5    26    1
     9     5     6    1
    10     6     7    1
    11     6    30    1
    12     6    31    1
    13     7     8    1
    14     7    32    1
    15     7    33    1
    16     8     9    1
    17     8    34    1
    18     8    35    1
    19     9    10   am
    20     9    25    1
    21    10    11    2
    22    10    12   am
    23    12    13    1
    24    12    36    1
    25    13    14    1
    26    13    24    1
    27    13    15    1
    28    15    16    1
    29    15    37    1
    30    15    38    1
    31    16    17    1
    32    16    39    1
    33    16    40    1
    34    17    18    1
    35    18    24   ar
    36    18    19   ar
    37    19    20    1
    38    19    21   ar
    39    21    22   ar
    40    21    41    1
    41    22    23   ar
    42    22    42    1
    43    23    24   ar
    44    23    43    1
    45    25    26    1
    46    25    44    1
    47    25    45    1
    48    26    46    1
    49    26    47    1
@<TRIPOS>SUBSTRUCTURE
     1 ZINC000371438955        1 TEMP              0 ****  ****    0 ROOT


##########                                Name:    ZINC000516003207
##########                DOCK_Rotatable_Bonds:                   5
##########                         Heavy_Atoms:                  24
##########                    Molecular_Weight:             342.462
##########                DOCK_Rotatable_Bonds:                   5
##########                       Formal_Charge:          -0.0200001
##########                     HBond_Acceptors:                   5
##########                        HBond_Donors:                   1
##########                         Heavy_Atoms:                  24
##########                          Grid_Score:          -27.980097
##########                     Grid_vdw_energy:          -27.909401
##########                      Grid_es_energy:           -0.070696
##########           Internal_energy_repulsive:            9.255672

@<TRIPOS>MOLECULE
ZINC000516003207
 46 49 1 0 0
SMALL
USER_CHARGES


@<TRIPOS>ATOM
      1 C1        -13.8800   -4.7322   54.8210 C.3     1  ZINC000516003207    0.0300
      2 O2        -12.8480   -3.9863   54.1722 O.3     1  ZINC000516003207   -0.3600
      3 C3        -12.6861   -2.6589   54.6757 C.3     1  ZINC000516003207    0.0900
      4 H4        -13.4804   -2.3660   55.3622 H       1  ZINC000516003207    0.0800
      5 C5        -11.2711   -2.3683   55.2081 C.3     1  ZINC000516003207   -0.1700
      6 C6        -10.9082   -1.9106   53.7837 C.3     1  ZINC000516003207    0.1500
      7 H7        -10.5320   -2.7128   53.1489 H       1  ZINC000516003207    0.1200
      8 N8        -10.0653   -0.7128   53.7477 N.am    1  ZINC000516003207   -0.7200
      9 C9         -9.1094   -0.5896   52.8056 C.2     1  ZINC000516003207    0.5600
     10 O10        -8.9477   -1.4714   51.9848 O.2     1  ZINC000516003207   -0.5300
     11 C11        -8.2575    0.6185   52.7704 C.ar    1  ZINC000516003207   -0.1400
     12 C12        -8.6039    1.7413   53.5244 C.ar    1  ZINC000516003207   -0.0800
     13 C13        -7.8089    2.8697   53.4915 C.ar    1  ZINC000516003207   -0.1200
     14 C14        -6.6677    2.8950   52.7142 C.ar    1  ZINC000516003207   -0.0800
     15 C15        -6.3105    1.7796   51.9567 C.ar    1  ZINC000516003207   -0.0300
     16 C16        -5.0840    1.8097   51.1226 C.2     1  ZINC000516003207    0.1100
     17 C17        -4.7765    0.8425   50.2351 C.2     1  ZINC000516003207   -0.2600
     18 S18        -3.2494    1.2754   49.4708 S.3     1  ZINC000516003207    0.1400
     19 C19        -3.1698    2.7023   50.4082 C.2     1  ZINC000516003207    0.0600
     20 C20        -2.0569    3.7160   50.3371 C.3     1  ZINC000516003207   -0.0800
     21 N21        -4.1969    2.7925   51.1802 N.2     1  ZINC000516003207   -0.4700
     22 C22        -7.1034    0.6372   51.9888 C.ar    1  ZINC000516003207   -0.0300
     23 C23       -12.4002   -1.6212   53.5897 C.3     1  ZINC000516003207   -0.1100
     24 C24       -13.0516   -1.7187   52.2097 C.3     1  ZINC000516003207   -0.1200
     25 C25       -14.0365   -0.6392   52.6941 C.3     1  ZINC000516003207   -0.1400
     26 C26       -12.9490   -0.1975   53.6902 C.3     1  ZINC000516003207   -0.1200
     27 H27       -14.8339   -4.2207   54.6920 H       1  ZINC000516003207    0.0400
     28 H28       -13.9395   -5.7281   54.3818 H       1  ZINC000516003207    0.0900
     29 H29       -13.6538   -4.8167   55.8839 H       1  ZINC000516003207    0.0400
     30 H30       -11.2387   -1.5661   55.9453 H       1  ZINC000516003207    0.0900
     31 H31       -10.7342   -3.2608   55.5293 H       1  ZINC000516003207    0.0800
     32 H32       -10.1952   -0.0085   54.4019 H       1  ZINC000516003207    0.4000
     33 H33        -9.4952    1.7274   54.1342 H       1  ZINC000516003207    0.1300
     34 H34        -8.0810    3.7364   54.0758 H       1  ZINC000516003207    0.1400
     35 H35        -6.0503    3.7809   52.6924 H       1  ZINC000516003207    0.1300
     36 H36        -5.3624   -0.0411   50.0294 H       1  ZINC000516003207    0.1800
     37 H37        -1.3201    3.3955   49.6007 H       1  ZINC000516003207    0.0800
     38 H38        -2.4650    4.6838   50.0455 H       1  ZINC000516003207    0.0900
     39 H39        -1.5808    3.8020   51.3139 H       1  ZINC000516003207    0.0900
     40 H40        -6.8308   -0.2288   51.4038 H       1  ZINC000516003207    0.1500
     41 H41       -12.4054   -1.3881   51.3966 H       1  ZINC000516003207    0.0800
     42 H42       -13.5207   -2.6831   52.0145 H       1  ZINC000516003207    0.0800
     43 H43       -14.2666    0.1117   51.9384 H       1  ZINC000516003207    0.0700
     44 H44       -14.9275   -1.0453   53.1731 H       1  ZINC000516003207    0.0800
     45 H45       -13.3361    0.0533   54.6778 H       1  ZINC000516003207    0.0700
     46 H46       -12.2739    0.5606   53.2932 H       1  ZINC000516003207    0.0900
@<TRIPOS>BOND
     1     1     2    1
     2     1    27    1
     3     1    28    1
     4     1    29    1
     5     2     3    1
     6     3     4    1
     7     3    23    1
     8     3     5    1
     9     5     6    1
    10     5    30    1
    11     5    31    1
    12     6     7    1
    13     6     8    1
    14     6    23    1
    15     8     9   am
    16     8    32    1
    17     9    10    2
    18     9    11    1
    19    11    22   ar
    20    11    12   ar
    21    12    13   ar
    22    12    33    1
    23    13    14   ar
    24    13    34    1
    25    14    15   ar
    26    14    35    1
    27    15    16    1
    28    15    22   ar
    29    16    21    1
    30    16    17    2
    31    17    18    1
    32    17    36    1
    33    18    19    1
    34    19    20    1
    35    19    21    2
    36    20    37    1
    37    20    38    1
    38    20    39    1
    39    22    40    1
    40    23    26    1
    41    23    24    1
    42    24    25    1
    43    24    41    1
    44    24    42    1
    45    25    26    1
    46    25    43    1
    47    25    44    1
    48    26    45    1
    49    26    46    1
@<TRIPOS>SUBSTRUCTURE
     1 ZINC000516003207        1 TEMP              0 ****  ****    0 ROOT


##########                                Name:    ZINC000517001504
##########                DOCK_Rotatable_Bonds:                   5
##########                         Heavy_Atoms:                  29
##########                    Molecular_Weight:             403.401
##########                DOCK_Rotatable_Bonds:                   5
##########                       Formal_Charge:          -0.0200002
##########                     HBond_Acceptors:                   7
##########                        HBond_Donors:                   0
##########                         Heavy_Atoms:                  29
##########                          Grid_Score:          -27.976442
##########                     Grid_vdw_energy:          -27.080774
##########                      Grid_es_energy:           -0.895669
##########           Internal_energy_repulsive:           31.741144

@<TRIPOS>MOLECULE
ZINC000517001504
 49 52 1 0 0
SMALL
USER_CHARGES


@<TRIPOS>ATOM
      1 O1        -13.9239   -3.5265   59.2555 O.2     1  ZINC000517001504   -0.5200
      2 C2        -13.2624   -2.5161   59.1433 C.2     1  ZINC000517001504    0.5400
      3 N3        -12.6714   -2.2246   57.9676 N.am    1  ZINC000517001504   -0.6100
      4 C4        -12.8095   -3.1197   56.8079 C.3     1  ZINC000517001504    0.0600
      5 C5        -11.4116   -3.4022   56.2461 C.3     1  ZINC000517001504    0.0500
      6 O6        -10.7379   -2.1627   56.0147 O.3     1  ZINC000517001504   -0.3700
      7 C7        -10.5174   -1.3872   57.1952 C.3     1  ZINC000517001504    0.1200
      8 H8         -9.9470   -1.9742   57.9152 H       1  ZINC000517001504    0.0800
      9 C9         -9.7492   -0.1397   56.8418 C.ar    1  ZINC000517001504   -0.0600
     10 C10        -9.9006    0.4348   55.5936 C.ar    1  ZINC000517001504   -0.0900
     11 C11        -9.1960    1.5791   55.2694 C.ar    1  ZINC000517001504   -0.0700
     12 C12        -8.3405    2.1491   56.1936 C.ar    1  ZINC000517001504   -0.1800
     13 C13        -7.5719    3.3963   55.8400 C.3     1  ZINC000517001504    0.5100
     14 F14        -7.2361    4.0847   57.0107 F       1  ZINC000517001504   -0.1800
     15 F15        -6.4043    3.0458   55.1538 F       1  ZINC000517001504   -0.1800
     16 F16        -8.3621    4.2163   55.0273 F       1  ZINC000517001504   -0.1800
     17 C17        -8.1901    1.5753   57.4422 C.ar    1  ZINC000517001504   -0.0700
     18 C18        -8.8976    0.4332   57.7677 C.ar    1  ZINC000517001504   -0.1000
     19 C19       -11.8742   -0.9986   57.8041 C.3     1  ZINC000517001504    0.0900
     20 C20       -13.1063   -1.5836   60.3168 C.3     1  ZINC000517001504   -0.0600
     21 C21       -11.7044   -1.5665   60.8694 C.ar    1  ZINC000517001504   -0.0700
     22 C22       -10.7807   -2.5009   60.4397 C.ar    1  ZINC000517001504   -0.1200
     23 C23        -9.4947   -2.4851   60.9465 C.ar    1  ZINC000517001504   -0.1100
     24 C24        -9.1323   -1.5349   61.8828 C.ar    1  ZINC000517001504   -0.1100
     25 C25       -10.0559   -0.6000   62.3118 C.ar    1  ZINC000517001504   -0.1100
     26 C26       -11.3405   -0.6130   61.8017 C.ar    1  ZINC000517001504   -0.1000
     27 C27       -13.6936   -0.1826   60.0743 C.3     1  ZINC000517001504   -0.1600
     28 C28       -14.9961   -0.7271   60.6263 C.2     1  ZINC000517001504    0.3600
     29 O29       -16.1669   -0.4567   60.5069 O.2     1  ZINC000517001504   -0.4100
     30 C30       -14.1919   -1.7583   61.3928 C.3     1  ZINC000517001504   -0.1900
     31 H31       -13.2760   -4.0544   57.1191 H       1  ZINC000517001504    0.1000
     32 H32       -13.4219   -2.6397   56.0445 H       1  ZINC000517001504    0.0800
     33 H33       -10.8445   -3.9965   56.9625 H       1  ZINC000517001504    0.0600
     34 H34       -11.5001   -3.9493   55.3075 H       1  ZINC000517001504    0.1100
     35 H35       -10.5690   -0.0105   54.8717 H       1  ZINC000517001504    0.1400
     36 H36        -9.3137    2.0276   54.2940 H       1  ZINC000517001504    0.1400
     37 H37        -7.5219    2.0209   58.1643 H       1  ZINC000517001504    0.1400
     38 H38        -8.7801   -0.0150   58.7433 H       1  ZINC000517001504    0.1400
     39 H39       -12.3895   -0.3050   57.1397 H       1  ZINC000517001504    0.0800
     40 H40       -11.7198   -0.5305   58.7762 H       1  ZINC000517001504    0.1100
     41 H41       -11.0638   -3.2433   59.7083 H       1  ZINC000517001504    0.1300
     42 H42        -8.7732   -3.2156   60.6114 H       1  ZINC000517001504    0.1300
     43 H43        -8.1279   -1.5231   62.2793 H       1  ZINC000517001504    0.1300
     44 H44        -9.7729    0.1423   63.0435 H       1  ZINC000517001504    0.1300
     45 H45       -12.0621    0.1174   62.1369 H       1  ZINC000517001504    0.1200
     46 H46       -13.2456    0.5932   60.6953 H       1  ZINC000517001504    0.1300
     47 H47       -13.7462    0.0936   59.0212 H       1  ZINC000517001504    0.1100
     48 H48       -14.6453   -2.7496   61.4001 H       1  ZINC000517001504    0.1000
     49 H49       -13.8837   -1.4247   62.3836 H       1  ZINC000517001504    0.1400
@<TRIPOS>BOND
     1     1     2    2
     2     2     3   am
     3     2    20    1
     4     3    19    1
     5     3     4    1
     6     4     5    1
     7     4    31    1
     8     4    32    1
     9     5     6    1
    10     5    33    1
    11     5    34    1
    12     6     7    1
    13     7     8    1
    14     7     9    1
    15     7    19    1
    16     9    18   ar
    17     9    10   ar
    18    10    11   ar
    19    10    35    1
    20    11    12   ar
    21    11    36    1
    22    12    13    1
    23    12    17   ar
    24    13    14    1
    25    13    15    1
    26    13    16    1
    27    17    18   ar
    28    17    37    1
    29    18    38    1
    30    19    39    1
    31    19    40    1
    32    20    30    1
    33    20    21    1
    34    20    27    1
    35    21    26   ar
    36    21    22   ar
    37    22    23   ar
    38    22    41    1
    39    23    24   ar
    40    23    42    1
    41    24    25   ar
    42    24    43    1
    43    25    26   ar
    44    25    44    1
    45    26    45    1
    46    27    28    1
    47    27    46    1
    48    27    47    1
    49    28    29    2
    50    28    30    1
    51    30    48    1
    52    30    49    1
@<TRIPOS>SUBSTRUCTURE
     1 ZINC000517001504        1 TEMP              0 ****  ****    0 ROOT


##########                                Name:    ZINC001179023006
##########                DOCK_Rotatable_Bonds:                   3
##########                         Heavy_Atoms:                  25
##########                    Molecular_Weight:             340.465
##########                DOCK_Rotatable_Bonds:                   3
##########                       Formal_Charge:          -0.0100005
##########                     HBond_Acceptors:                   4
##########                        HBond_Donors:                   1
##########                         Heavy_Atoms:                  25
##########                          Grid_Score:          -27.975533
##########                     Grid_vdw_energy:          -27.333586
##########                      Grid_es_energy:           -0.641946
##########           Internal_energy_repulsive:           28.666107

@<TRIPOS>MOLECULE
ZINC001179023006
 53 56 1 0 0
SMALL
USER_CHARGES


@<TRIPOS>ATOM
      1 C1        -14.3469   -1.8623   54.8390 C.3     1  ZINC001179023006   -0.1500
      2 C2        -14.6414   -2.4756   56.2093 C.3     1  ZINC001179023006   -0.1100
      3 C3        -13.8509   -3.7760   56.3666 C.3     1  ZINC001179023006   -0.1100
      4 C4        -12.3613   -3.5531   56.4158 C.2     1  ZINC001179023006    0.5400
      5 O5        -11.6675   -3.8829   55.4773 O.2     1  ZINC001179023006   -0.5400
      6 N6        -11.8001   -2.9869   57.5025 N.am    1  ZINC001179023006   -0.5900
      7 C7        -12.6274   -2.5761   58.6449 C.3     1  ZINC001179023006    0.1000
      8 C8        -12.3384   -1.1122   58.9691 C.3     1  ZINC001179023006   -0.1200
      9 C9        -10.8309   -0.9316   59.1988 C.3     1  ZINC001179023006   -0.0500
     10 C10       -10.0916   -1.2913   57.9016 C.3     1  ZINC001179023006   -0.1100
     11 C11       -10.3495   -2.7627   57.5661 C.3     1  ZINC001179023006    0.0900
     12 C12       -10.5513    0.5234   59.5406 C.3     1  ZINC001179023006   -0.0800
     13 C13       -11.3362    0.9717   60.7353 C.ar    1  ZINC001179023006   -0.0700
     14 C14       -12.4106    1.8336   60.5397 C.ar    1  ZINC001179023006   -0.1100
     15 C15       -13.1920    2.2154   61.6125 C.ar    1  ZINC001179023006   -0.1100
     16 C16       -12.9102    1.7456   62.8815 C.ar    1  ZINC001179023006   -0.1200
     17 C17       -11.8324    0.8998   63.0751 C.ar    1  ZINC001179023006   -0.1000
     18 C18       -11.0515    0.5319   61.9939 C.ar    1  ZINC001179023006   -0.1100
     19 C19        -9.8592   -0.3664   62.2035 C.3     1  ZINC001179023006    0.1400
     20 N20       -10.0198   -1.6324   61.5235 N.am    1  ZINC001179023006   -0.7000
     21 C21       -10.3865   -1.8563   60.2878 C.2     1  ZINC001179023006    0.5200
     22 O22       -10.3623   -3.0256   59.9670 O.2     1  ZINC001179023006   -0.5500
     23 C23       -14.2766   -4.8786   55.3827 C.3     1  ZINC001179023006   -0.1200
     24 C24       -14.1150   -5.8702   56.5492 C.3     1  ZINC001179023006   -0.1400
     25 C25       -14.3754   -4.6835   57.4919 C.3     1  ZINC001179023006   -0.1300
     26 H26       -14.8800   -0.9165   54.7420 H       1  ZINC001179023006    0.0600
     27 H27       -13.2754   -1.6870   54.7421 H       1  ZINC001179023006    0.0500
     28 H28       -14.6753   -2.5464   54.0565 H       1  ZINC001179023006    0.0600
     29 H29       -15.7077   -2.6864   56.2914 H       1  ZINC001179023006    0.0700
     30 H30       -14.3483   -1.7753   56.9915 H       1  ZINC001179023006    0.0700
     31 H31       -13.6815   -2.6917   58.3929 H       1  ZINC001179023006    0.0900
     32 H32       -12.3871   -3.1933   59.5107 H       1  ZINC001179023006    0.0800
     33 H33       -12.8810   -0.8235   59.8692 H       1  ZINC001179023006    0.0800
     34 H34       -12.6572   -0.4867   58.1353 H       1  ZINC001179023006    0.0800
     35 H35        -9.0218   -1.1305   58.0355 H       1  ZINC001179023006    0.0800
     36 H36       -10.4551   -0.6632   57.0882 H       1  ZINC001179023006    0.0800
     37 H37        -9.9157   -3.3955   58.3403 H       1  ZINC001179023006    0.1200
     38 H38        -9.9004   -3.0018   56.6021 H       1  ZINC001179023006    0.0800
     39 H39        -9.4879    0.6419   59.7490 H       1  ZINC001179023006    0.0800
     40 H40       -10.8165    1.1467   58.6866 H       1  ZINC001179023006    0.0900
     41 H41       -12.6336    2.2035   59.5499 H       1  ZINC001179023006    0.1200
     42 H42       -14.0263    2.8838   61.4593 H       1  ZINC001179023006    0.1200
     43 H43       -13.5284    2.0371   63.7177 H       1  ZINC001179023006    0.1300
     44 H44       -11.6023    0.5298   64.0633 H       1  ZINC001179023006    0.1300
     45 H45        -9.7346   -0.5492   63.2708 H       1  ZINC001179023006    0.0900
     46 H46        -8.9674    0.1314   61.8227 H       1  ZINC001179023006    0.0800
     47 H47        -9.8306   -2.4215   62.0549 H       1  ZINC001179023006    0.4000
     48 H48       -15.3043   -4.7791   55.0334 H       1  ZINC001179023006    0.0900
     49 H49       -13.5663   -5.0379   54.5715 H       1  ZINC001179023006    0.0800
     50 H50       -13.1096   -6.2827   56.6338 H       1  ZINC001179023006    0.0800
     51 H51       -14.8907   -6.6351   56.5857 H       1  ZINC001179023006    0.0700
     52 H52       -13.7446   -4.6856   58.3809 H       1  ZINC001179023006    0.0700
     53 H53       -15.4302   -4.5305   57.7204 H       1  ZINC001179023006    0.0900
@<TRIPOS>BOND
     1     1     2    1
     2     1    26    1
     3     1    27    1
     4     1    28    1
     5     2     3    1
     6     2    29    1
     7     2    30    1
     8     3    25    1
     9     3     4    1
    10     3    23    1
    11     4     5    2
    12     4     6   am
    13     6    11    1
    14     6     7    1
    15     7     8    1
    16     7    31    1
    17     7    32    1
    18     8     9    1
    19     8    33    1
    20     8    34    1
    21     9    21    1
    22     9    10    1
    23     9    12    1
    24    10    11    1
    25    10    35    1
    26    10    36    1
    27    11    37    1
    28    11    38    1
    29    12    13    1
    30    12    39    1
    31    12    40    1
    32    13    18   ar
    33    13    14   ar
    34    14    15   ar
    35    14    41    1
    36    15    16   ar
    37    15    42    1
    38    16    17   ar
    39    16    43    1
    40    17    18   ar
    41    17    44    1
    42    18    19    1
    43    19    20    1
    44    19    45    1
    45    19    46    1
    46    20    21   am
    47    20    47    1
    48    21    22    2
    49    23    24    1
    50    23    48    1
    51    23    49    1
    52    24    25    1
    53    24    50    1
    54    24    51    1
    55    25    52    1
    56    25    53    1
@<TRIPOS>SUBSTRUCTURE
     1 ZINC001179023006        1 TEMP              0 ****  ****    0 ROOT


##########                                Name:    ZINC000950547210
##########                DOCK_Rotatable_Bonds:                   5
##########                         Heavy_Atoms:                  25
##########                    Molecular_Weight:              346.47
##########                DOCK_Rotatable_Bonds:                   5
##########                       Formal_Charge:         5.58794e-07
##########                     HBond_Acceptors:                   5
##########                        HBond_Donors:                   1
##########                         Heavy_Atoms:                  25
##########                          Grid_Score:          -27.967085
##########                     Grid_vdw_energy:          -27.280928
##########                      Grid_es_energy:           -0.686157
##########           Internal_energy_repulsive:           21.965403

@<TRIPOS>MOLECULE
ZINC000950547210
 55 58 1 0 0
SMALL
USER_CHARGES


@<TRIPOS>ATOM
      1 O1        -12.5521    0.4445   56.3439 O.2     1  ZINC000950547210   -0.5200
      2 C2        -11.7485   -0.3994   56.6801 C.2     1  ZINC000950547210    0.5200
      3 N3        -11.1273   -1.1480   55.7474 N.am    1  ZINC000950547210   -0.7300
      4 C4        -11.4271   -0.9465   54.3276 C.3     1  ZINC000950547210    0.1300
      5 H5        -11.4402    0.1208   54.1065 H       1  ZINC000950547210    0.0900
      6 C6        -10.3548   -1.6313   53.4769 C.3     1  ZINC000950547210   -0.1300
      7 C7        -10.6489   -1.3936   51.9940 C.3     1  ZINC000950547210   -0.1300
      8 C8        -12.0086   -2.0056   51.6428 C.3     1  ZINC000950547210    0.1000
      9 N9        -13.0230   -1.4590   52.5543 N.am    1  ZINC000950547210   -0.6100
     10 C10       -14.1411   -0.8822   52.0709 C.2     1  ZINC000950547210    0.5600
     11 O11       -14.9732   -0.4334   52.8359 O.2     1  ZINC000950547210   -0.5200
     12 C12       -14.3550   -0.7955   50.6181 C.2     1  ZINC000950547210   -0.1400
     13 C13       -14.6439   -1.8971   49.9491 C.2     1  ZINC000950547210   -0.1500
     14 C14       -14.8698   -1.9056   48.4635 C.3     1  ZINC000950547210    0.0900
     15 O15       -15.0857   -0.5741   47.9921 O.3     1  ZINC000950547210   -0.3700
     16 C16       -14.0830    0.3485   48.4347 C.3     1  ZINC000950547210    0.0600
     17 C17       -14.2431    0.5457   49.9462 C.3     1  ZINC000950547210   -0.1100
     18 C18       -12.7959   -1.5527   54.0029 C.3     1  ZINC000950547210    0.1000
     19 C19       -11.4401   -0.6066   58.1406 C.3     1  ZINC000950547210   -0.1000
     20 H20       -11.6230    0.3195   58.6856 H       1  ZINC000950547210    0.1000
     21 C21        -9.9730   -1.0107   58.2997 C.3     1  ZINC000950547210   -0.1100
     22 C22        -9.8921   -2.3863   58.9646 C.3     1  ZINC000950547210   -0.0900
     23 C23       -10.5570   -2.3273   60.3412 C.3     1  ZINC000950547210   -0.1100
     24 C24       -12.0240   -1.9233   60.1821 C.3     1  ZINC000950547210   -0.1100
     25 C25       -12.3372   -1.7129   58.6993 C.3     1  ZINC000950547210   -0.0600
     26 C26       -12.0804   -3.0128   57.9343 C.3     1  ZINC000950547210   -0.1300
     27 C27       -10.6133   -3.4169   58.0935 C.3     1  ZINC000950547210   -0.1200
     28 H28       -10.4817   -1.8203   56.0161 H       1  ZINC000950547210    0.4000
     29 H29        -9.3768   -1.2182   53.7239 H       1  ZINC000950547210    0.0800
     30 H30       -10.3586   -2.7020   53.6808 H       1  ZINC000950547210    0.0700
     31 H31       -10.6698   -0.3222   51.7944 H       1  ZINC000950547210    0.0700
     32 H32        -9.8721   -1.8616   51.3894 H       1  ZINC000950547210    0.0900
     33 H33       -12.2679   -1.7540   50.6144 H       1  ZINC000950547210    0.0900
     34 H34       -11.9618   -3.0888   51.7554 H       1  ZINC000950547210    0.0700
     35 H35       -14.7203   -2.8282   50.4908 H       1  ZINC000950547210    0.1200
     36 H36       -13.9958   -2.3274   47.9673 H       1  ZINC000950547210    0.0700
     37 H37       -15.7430   -2.5163   48.2342 H       1  ZINC000950547210    0.1100
     38 H38       -13.0936   -0.0536   48.2169 H       1  ZINC000950547210    0.0600
     39 H39       -14.2137    1.3036   47.9259 H       1  ZINC000950547210    0.1000
     40 H40       -15.1402    1.1328   50.1427 H       1  ZINC000950547210    0.0900
     41 H41       -13.3725    1.0715   50.3380 H       1  ZINC000950547210    0.0900
     42 H42       -12.8131   -2.5989   54.3085 H       1  ZINC000950547210    0.0700
     43 H43       -13.5747   -1.0028   54.5312 H       1  ZINC000950547210    0.1000
     44 H44        -9.4992   -1.0527   57.3190 H       1  ZINC000950547210    0.0700
     45 H45        -9.4592   -0.2765   58.9202 H       1  ZINC000950547210    0.0700
     46 H46        -8.8469   -2.6742   59.0778 H       1  ZINC000950547210    0.0700
     47 H47       -10.4994   -3.3074   60.8148 H       1  ZINC000950547210    0.0600
     48 H48       -10.0432   -1.5932   60.9617 H       1  ZINC000950547210    0.0600
     49 H49       -12.6633   -2.7115   60.5801 H       1  ZINC000950547210    0.0700
     50 H50       -12.2070   -0.9973   60.7270 H       1  ZINC000950547210    0.0600
     51 H51       -13.3823   -1.4251   58.5860 H       1  ZINC000950547210    0.0800
     52 H52       -12.7195   -3.8010   58.3324 H       1  ZINC000950547210    0.0600
     53 H53       -12.3035   -2.8630   56.8780 H       1  ZINC000950547210    0.0900
     54 H54       -10.1396   -3.4589   57.1127 H       1  ZINC000950547210    0.0600
     55 H55       -10.5557   -4.3969   58.5672 H       1  ZINC000950547210    0.0600
@<TRIPOS>BOND
     1     1     2    2
     2     2     3   am
     3     2    19    1
     4     3     4    1
     5     3    28    1
     6     4     5    1
     7     4    18    1
     8     4     6    1
     9     6     7    1
    10     6    29    1
    11     6    30    1
    12     7     8    1
    13     7    31    1
    14     7    32    1
    15     8     9    1
    16     8    33    1
    17     8    34    1
    18     9    10   am
    19     9    18    1
    20    10    11    2
    21    10    12    1
    22    12    17    1
    23    12    13    2
    24    13    14    1
    25    13    35    1
    26    14    15    1
    27    14    36    1
    28    14    37    1
    29    15    16    1
    30    16    17    1
    31    16    38    1
    32    16    39    1
    33    17    40    1
    34    17    41    1
    35    18    42    1
    36    18    43    1
    37    19    20    1
    38    19    25    1
    39    19    21    1
    40    21    22    1
    41    21    44    1
    42    21    45    1
    43    22    27    1
    44    22    23    1
    45    22    46    1
    46    23    24    1
    47    23    47    1
    48    23    48    1
    49    24    25    1
    50    24    49    1
    51    24    50    1
    52    25    26    1
    53    25    51    1
    54    26    27    1
    55    26    52    1
    56    26    53    1
    57    27    54    1
    58    27    55    1
@<TRIPOS>SUBSTRUCTURE
     1 ZINC000950547210        1 TEMP              0 ****  ****    0 ROOT


##########                                Name:    ZINC001220212140
##########                DOCK_Rotatable_Bonds:                   6
##########                         Heavy_Atoms:                  28
##########                    Molecular_Weight:             379.459
##########                DOCK_Rotatable_Bonds:                   6
##########                       Formal_Charge:         -0.00999925
##########                     HBond_Acceptors:                   6
##########                        HBond_Donors:                   1
##########                         Heavy_Atoms:                  28
##########                          Grid_Score:          -27.885126
##########                     Grid_vdw_energy:          -27.351261
##########                      Grid_es_energy:           -0.533865
##########           Internal_energy_repulsive:          172.324722

@<TRIPOS>MOLECULE
ZINC001220212140
 53 56 1 0 0
SMALL
USER_CHARGES


@<TRIPOS>ATOM
      1 C1        -14.1434   -4.0233   58.1320 C.3     1  ZINC001220212140   -0.1700
      2 C2        -13.0465   -4.5598   57.2101 C.3     1  ZINC001220212140    0.0800
      3 H3        -13.3871   -5.4528   56.6861 H       1  ZINC001220212140    0.1200
      4 C4        -12.5953   -3.4735   56.2053 C.3     1  ZINC001220212140   -0.1100
      5 C5        -11.4214   -2.8438   56.9303 C.ar    1  ZINC001220212140   -0.1500
      6 C6        -10.7427   -1.6622   56.7356 C.ar    1  ZINC001220212140   -0.0700
      7 C7         -9.6859   -1.3238   57.5721 C.ar    1  ZINC001220212140    0.1400
      8 N8         -8.9914   -0.1219   57.3791 N.am    1  ZINC001220212140   -0.6800
      9 C9         -9.5938    1.0545   57.6428 C.2     1  ZINC001220212140    0.7200
     10 O10       -10.7400    1.0730   58.0482 O.2     1  ZINC001220212140   -0.5700
     11 N11        -8.9259    2.2102   57.4572 N.am    1  ZINC001220212140   -0.6300
     12 C12        -9.4600    3.5577   57.7042 C.3     1  ZINC001220212140    0.0900
     13 C13        -8.3348    4.5629   57.3806 C.3     1  ZINC001220212140   -0.1100
     14 C14        -7.0509    3.7016   57.5114 C.3     1  ZINC001220212140   -0.1300
     15 H15        -6.7374    3.6232   58.5524 H       1  ZINC001220212140    0.1200
     16 C16        -5.9401    4.2541   56.6559 C.2     1  ZINC001220212140    0.5300
     17 O17        -6.1425    5.2173   55.9471 O.2     1  ZINC001220212140   -0.5100
     18 N18        -4.7219    3.6780   56.6785 N.am    1  ZINC001220212140   -0.5700
     19 C19        -4.4776    2.5146   57.5347 C.3     1  ZINC001220212140    0.0700
     20 C20        -3.6906    4.1911   55.8841 C.ar    1  ZINC001220212140    0.1400
     21 C21        -3.9188    5.2980   55.0771 C.ar    1  ZINC001220212140   -0.1100
     22 C22        -2.8987    5.8020   54.2942 C.ar    1  ZINC001220212140   -0.1100
     23 C23        -1.6514    5.2054   54.3131 C.ar    1  ZINC001220212140   -0.1200
     24 C24        -1.4211    4.1029   55.1152 C.ar    1  ZINC001220212140   -0.1100
     25 C25        -2.4350    3.5980   55.9054 C.ar    1  ZINC001220212140   -0.1200
     26 C26        -7.5368    2.3327   56.9791 C.3     1  ZINC001220212140    0.1400
     27 C27        -9.3226   -2.1827   58.6002 C.ar    1  ZINC001220212140   -0.1100
     28 C28       -10.0029   -3.3673   58.7897 C.ar    1  ZINC001220212140   -0.1200
     29 C29       -11.0602   -3.7128   57.9522 C.ar    1  ZINC001220212140    0.0900
     30 O30       -11.8455   -4.8316   57.9521 O.3     1  ZINC001220212140   -0.3000
     31 H31       -13.7785   -3.1391   58.6547 H       1  ZINC001220212140    0.0600
     32 H32       -15.0192   -3.7593   57.5393 H       1  ZINC001220212140    0.0800
     33 H33       -14.4140   -4.7892   58.8588 H       1  ZINC001220212140    0.0700
     34 H34       -12.2769   -3.9216   55.2642 H       1  ZINC001220212140    0.0900
     35 H35       -13.3874   -2.7434   56.0392 H       1  ZINC001220212140    0.0900
     36 H36       -11.0312   -0.9987   55.9337 H       1  ZINC001220212140    0.1400
     37 H37        -8.0769   -0.1367   57.0558 H       1  ZINC001220212140    0.4100
     38 H38       -10.3180    3.7407   57.0572 H       1  ZINC001220212140    0.0700
     39 H39        -9.7540    3.6541   58.7494 H       1  ZINC001220212140    0.0700
     40 H40        -8.4402    4.9463   56.3657 H       1  ZINC001220212140    0.1000
     41 H41        -8.3270    5.3789   58.1033 H       1  ZINC001220212140    0.0900
     42 H42        -4.6976    1.6026   56.9798 H       1  ZINC001220212140    0.0700
     43 H43        -3.4335    2.5066   57.8475 H       1  ZINC001220212140    0.0800
     44 H44        -5.1198    2.5690   58.4137 H       1  ZINC001220212140    0.0800
     45 H45        -4.8930    5.7640   55.0615 H       1  ZINC001220212140    0.1200
     46 H46        -3.0756    6.6629   53.6665 H       1  ZINC001220212140    0.1300
     47 H47        -0.8555    5.6012   53.6996 H       1  ZINC001220212140    0.1300
     48 H48        -0.4460    3.6388   55.1270 H       1  ZINC001220212140    0.1300
     49 H49        -2.2546    2.7369   56.5316 H       1  ZINC001220212140    0.1200
     50 H50        -6.9210    1.5287   57.3822 H       1  ZINC001220212140    0.0900
     51 H51        -7.5137    2.3196   55.8895 H       1  ZINC001220212140    0.0700
     52 H52        -8.5034   -1.9224   59.2541 H       1  ZINC001220212140    0.1300
     53 H53        -9.7141   -4.0303   59.5920 H       1  ZINC001220212140    0.1300
@<TRIPOS>BOND
     1     1     2    1
     2     1    31    1
     3     1    32    1
     4     1    33    1
     5     2     3    1
     6     2    30    1
     7     2     4    1
     8     4     5    1
     9     4    34    1
    10     4    35    1
    11     5    29   ar
    12     5     6   ar
    13     6     7   ar
    14     6    36    1
    15     7     8    1
    16     7    27   ar
    17     8     9   am
    18     8    37    1
    19     9    10    2
    20     9    11   am
    21    11    26    1
    22    11    12    1
    23    12    13    1
    24    12    38    1
    25    12    39    1
    26    13    14    1
    27    13    40    1
    28    13    41    1
    29    14    15    1
    30    14    16    1
    31    14    26    1
    32    16    17    2
    33    16    18   am
    34    18    19    1
    35    18    20    1
    36    19    42    1
    37    19    43    1
    38    19    44    1
    39    20    25   ar
    40    20    21   ar
    41    21    22   ar
    42    21    45    1
    43    22    23   ar
    44    22    46    1
    45    23    24   ar
    46    23    47    1
    47    24    25   ar
    48    24    48    1
    49    25    49    1
    50    26    50    1
    51    26    51    1
    52    27    28   ar
    53    27    52    1
    54    28    29   ar
    55    28    53    1
    56    29    30    1
@<TRIPOS>SUBSTRUCTURE
     1 ZINC001220212140        1 TEMP              0 ****  ****    0 ROOT


##########                                Name:    ZINC000469391664
##########                DOCK_Rotatable_Bonds:                   6
##########                         Heavy_Atoms:                  29
##########                    Molecular_Weight:             408.524
##########                DOCK_Rotatable_Bonds:                   6
##########                       Formal_Charge:         -0.00999999
##########                     HBond_Acceptors:                   7
##########                        HBond_Donors:                   0
##########                         Heavy_Atoms:                  29
##########                          Grid_Score:          -27.685709
##########                     Grid_vdw_energy:          -26.078243
##########                      Grid_es_energy:           -1.607466
##########           Internal_energy_repulsive:           20.393192

@<TRIPOS>MOLECULE
ZINC000469391664
 53 56 1 0 0
SMALL
USER_CHARGES


@<TRIPOS>ATOM
      1 C1        -11.1421   -3.9503   53.1961 C.3     1  ZINC000469391664   -0.1500
      2 C2        -11.9037   -2.6239   53.2376 C.3     1  ZINC000469391664   -0.1000
      3 H3        -12.9710   -2.8144   53.1255 H       1  ZINC000469391664    0.0800
      4 C4        -11.4236   -1.7244   52.0963 C.3     1  ZINC000469391664   -0.1300
      5 C5        -12.2124   -0.4115   52.1200 C.3     1  ZINC000469391664    0.1100
      6 N6        -12.0897    0.1900   53.4549 N.am    1  ZINC000469391664   -0.6100
      7 C7        -11.6648    1.4609   53.5991 C.2     1  ZINC000469391664    0.5600
      8 O8        -11.5674    1.9473   54.7093 O.2     1  ZINC000469391664   -0.5000
      9 C9        -11.3179    2.2618   52.4100 C.ar    1  ZINC000469391664   -0.1100
     10 C10       -12.2883    2.5457   51.4466 C.ar    1  ZINC000469391664   -0.0900
     11 C11       -11.9579    3.2951   50.3379 C.ar    1  ZINC000469391664   -0.1000
     12 C12       -10.6665    3.7688   50.1730 C.ar    1  ZINC000469391664   -0.0900
     13 C13        -9.6963    3.4960   51.1164 C.ar    1  ZINC000469391664   -0.1000
     14 C14       -10.0121    2.7480   52.2428 C.ar    1  ZINC000469391664    0.1500
     15 N15        -9.0357    2.4717   53.1953 N.am    1  ZINC000469391664   -0.5800
     16 C16        -8.2472    1.2407   53.1003 C.3     1  ZINC000469391664    0.0900
     17 C17        -8.8155    3.3368   54.2051 C.2     1  ZINC000469391664    0.6100
     18 O18        -9.4707    4.3595   54.2841 O.2     1  ZINC000469391664   -0.5200
     19 C19        -7.7875    3.0460   55.2079 C.2     1  ZINC000469391664   -0.2600
     20 C20        -6.4463    2.9475   54.9630 C.2     1  ZINC000469391664   -0.0500
     21 C21        -5.7078    2.6659   56.0876 C.2     1  ZINC000469391664   -0.1500
     22 C22        -6.4169    2.5378   57.2153 C.2     1  ZINC000469391664   -0.2600
     23 S23        -8.0805    2.7752   56.9204 S.3     1  ZINC000469391664    0.2300
     24 C24       -12.4392   -0.6201   54.6296 C.3     1  ZINC000469391664    0.1000
     25 C25       -11.6475   -1.9307   54.5778 C.3     1  ZINC000469391664    0.1300
     26 H26       -10.5835   -1.7172   54.6798 H       1  ZINC000469391664    0.1000
     27 N27       -12.0779   -2.8056   55.6712 N.pl3   1  ZINC000469391664   -0.4500
     28 C28       -13.3212   -3.3556   55.8300 C.2     1  ZINC000469391664   -0.0500
     29 C29       -13.2821   -4.0874   56.9598 C.2     1  ZINC000469391664   -0.0300
     30 N30       -12.0486   -3.9868   57.4769 N.2     1  ZINC000469391664   -0.4900
     31 C31       -11.3203   -3.2247   56.7076 C.2     1  ZINC000469391664    0.1800
     32 H32       -11.4843   -4.5913   54.0086 H       1  ZINC000469391664    0.0600
     33 H33       -11.3248   -4.4444   52.2419 H       1  ZINC000469391664    0.0600
     34 H34       -10.0747   -3.7600   53.3083 H       1  ZINC000469391664    0.0600
     35 H35       -10.3617   -1.5131   52.2218 H       1  ZINC000469391664    0.0700
     36 H36       -11.5847   -2.2284   51.1435 H       1  ZINC000469391664    0.0900
     37 H37       -11.8078    0.2714   51.3730 H       1  ZINC000469391664    0.1000
     38 H38       -13.2620   -0.6117   51.9047 H       1  ZINC000469391664    0.0800
     39 H39       -13.2962    2.1783   51.5700 H       1  ZINC000469391664    0.1400
     40 H40       -12.7094    3.5138   49.5939 H       1  ZINC000469391664    0.1400
     41 H41       -10.4172    4.3548   49.3008 H       1  ZINC000469391664    0.1400
     42 H42        -8.6918    3.8685   50.9805 H       1  ZINC000469391664    0.1400
     43 H43        -7.3115    1.4477   52.5809 H       1  ZINC000469391664    0.0600
     44 H44        -8.0322    0.8687   54.1021 H       1  ZINC000469391664    0.0900
     45 H45        -8.8113    0.4898   52.5473 H       1  ZINC000469391664    0.0700
     46 H46        -6.0104    3.0775   53.9835 H       1  ZINC000469391664    0.1500
     47 H47        -4.6336    2.5557   56.0629 H       1  ZINC000469391664    0.1400
     48 H48        -5.9923    2.3176   58.1836 H       1  ZINC000469391664    0.1600
     49 H49       -12.1843   -0.0751   55.5385 H       1  ZINC000469391664    0.1000
     50 H50       -13.5073   -0.8375   54.6190 H       1  ZINC000469391664    0.0800
     51 H51       -14.1704   -3.2271   55.1752 H       1  ZINC000469391664    0.1700
     52 H52       -14.1006   -4.6556   57.3766 H       1  ZINC000469391664    0.1700
     53 H53       -10.2852   -2.9665   56.8756 H       1  ZINC000469391664    0.2000
@<TRIPOS>BOND
     1     1     2    1
     2     1    32    1
     3     1    33    1
     4     1    34    1
     5     2     3    1
     6     2    25    1
     7     2     4    1
     8     4     5    1
     9     4    35    1
    10     4    36    1
    11     5     6    1
    12     5    37    1
    13     5    38    1
    14     6     7   am
    15     6    24    1
    16     7     8    2
    17     7     9    1
    18     9    14   ar
    19     9    10   ar
    20    10    11   ar
    21    10    39    1
    22    11    12   ar
    23    11    40    1
    24    12    13   ar
    25    12    41    1
    26    13    14   ar
    27    13    42    1
    28    14    15    1
    29    15    16    1
    30    15    17   am
    31    16    43    1
    32    16    44    1
    33    16    45    1
    34    17    18    2
    35    17    19    1
    36    19    23    1
    37    19    20    2
    38    20    21    1
    39    20    46    1
    40    21    22    2
    41    21    47    1
    42    22    23    1
    43    22    48    1
    44    24    25    1
    45    24    49    1
    46    24    50    1
    47    25    26    1
    48    25    27    1
    49    27    31    1
    50    27    28    1
    51    28    29    2
    52    28    51    1
    53    29    30    1
    54    29    52    1
    55    30    31    2
    56    31    53    1
@<TRIPOS>SUBSTRUCTURE
     1 ZINC000469391664        1 TEMP              0 ****  ****    0 ROOT


##########                                Name:    ZINC000004040798
##########                DOCK_Rotatable_Bonds:                   3
##########                         Heavy_Atoms:                  22
##########                    Molecular_Weight:             361.151
##########                DOCK_Rotatable_Bonds:                   3
##########                       Formal_Charge:           0.0200003
##########                     HBond_Acceptors:                   6
##########                        HBond_Donors:                   1
##########                         Heavy_Atoms:                  22
##########                          Grid_Score:          -27.537828
##########                     Grid_vdw_energy:          -28.100029
##########                      Grid_es_energy:            0.562201
##########           Internal_energy_repulsive:            1.974493

@<TRIPOS>MOLECULE
ZINC000004040798
 31 33 1 0 0
SMALL
USER_CHARGES


@<TRIPOS>ATOM
      1 O1        -11.6297   -2.4193   60.0555 O.2     1  ZINC000004040798   -0.4800
      2 C2        -10.9264   -2.0505   59.1337 C.2     1  ZINC000004040798    0.6100
      3 N3         -9.8815   -1.2323   59.3687 N.am    1  ZINC000004040798   -0.6600
      4 C4         -9.6090   -0.8026   60.6713 C.ar    1  ZINC000004040798    0.2300
      5 C5         -9.0373   -1.6760   61.5869 C.ar    1  ZINC000004040798   -0.1300
      6 C6         -8.7695   -1.2485   62.8730 C.ar    1  ZINC000004040798   -0.0100
      7 C7         -9.0699    0.0475   63.2493 C.ar    1  ZINC000004040798   -0.0600
      8 N8         -8.7813    0.5017   64.6283 N.pl3   1  ZINC000004040798    0.0300
      9 O9         -8.2798   -0.2661   65.4300 O.2     1  ZINC000004040798   -0.1500
     10 O10        -9.0453    1.6431   64.9614 O.2     1  ZINC000004040798   -0.1500
     11 C11        -9.6388    0.9208   62.3403 C.ar    1  ZINC000004040798    0.0000
     12 C12        -9.9046    0.5015   61.0508 C.ar    1  ZINC000004040798   -0.1400
     13 Br13      -10.6825    1.6959   59.8083 Br      1  ZINC000004040798    0.0000
     14 C14       -11.2127   -2.5020   57.7650 C.2     1  ZINC000004040798   -0.0500
     15 C15       -11.9654   -3.5851   57.4407 C.2     1  ZINC000004040798   -0.0800
     16 C16       -11.9767   -3.6477   55.9796 C.ar    1  ZINC000004040798   -0.1500
     17 C17       -12.5596   -4.5081   55.0465 C.ar    1  ZINC000004040798   -0.0500
     18 C18       -12.3735   -4.2853   53.7110 C.ar    1  ZINC000004040798   -0.1400
     19 C19       -11.6094   -3.2109   53.2771 C.ar    1  ZINC000004040798   -0.0700
     20 C20       -11.0257   -2.3503   54.1818 C.ar    1  ZINC000004040798   -0.1100
     21 C21       -11.2013   -2.5563   55.5451 C.ar    1  ZINC000004040798    0.0800
     22 O22       -10.7722   -1.8998   56.6405 O.3     1  ZINC000004040798   -0.1900
     23 H23        -9.3184   -0.9417   58.6342 H       1  ZINC000004040798    0.4300
     24 H24        -8.8027   -2.6887   61.2941 H       1  ZINC000004040798    0.1800
     25 H25        -8.3253   -1.9277   63.5855 H       1  ZINC000004040798    0.1700
     26 H26        -9.8723    1.9326   62.6374 H       1  ZINC000004040798    0.1700
     27 H27       -12.4558   -4.2632   58.1235 H       1  ZINC000004040798    0.1800
     28 H28       -13.1545   -5.3459   55.3788 H       1  ZINC000004040798    0.1400
     29 H29       -12.8236   -4.9499   52.9885 H       1  ZINC000004040798    0.1400
     30 H30       -11.4703   -3.0476   52.2186 H       1  ZINC000004040798    0.1400
     31 H31       -10.4336   -1.5175   53.8322 H       1  ZINC000004040798    0.1400
@<TRIPOS>BOND
     1     1     2    2
     2     2     3   am
     3     2    14    1
     4     3     4    1
     5     3    23    1
     6     4    12   ar
     7     4     5   ar
     8     5     6   ar
     9     5    24    1
    10     6     7   ar
    11     6    25    1
    12     7     8    1
    13     7    11   ar
    14     8     9    2
    15     8    10    2
    16    11    12   ar
    17    11    26    1
    18    12    13    1
    19    14    22    1
    20    14    15    2
    21    15    16    1
    22    15    27    1
    23    16    21   ar
    24    16    17   ar
    25    17    18   ar
    26    17    28    1
    27    18    19   ar
    28    18    29    1
    29    19    20   ar
    30    19    30    1
    31    20    21   ar
    32    20    31    1
    33    21    22    1
@<TRIPOS>SUBSTRUCTURE
     1 ZINC000004040798        1 TEMP              0 ****  ****    0 ROOT


##########                                Name:    ZINC000375477402
##########                DOCK_Rotatable_Bonds:                   5
##########                         Heavy_Atoms:                  26
##########                    Molecular_Weight:             378.342
##########                DOCK_Rotatable_Bonds:                   5
##########                       Formal_Charge:         -1.2666e-07
##########                     HBond_Acceptors:                   9
##########                        HBond_Donors:                   1
##########                         Heavy_Atoms:                  26
##########                          Grid_Score:          -27.440517
##########                     Grid_vdw_energy:          -28.431025
##########                      Grid_es_energy:            0.990507
##########           Internal_energy_repulsive:            7.746555

@<TRIPOS>MOLECULE
ZINC000375477402
 45 47 1 0 0
SMALL
USER_CHARGES


@<TRIPOS>ATOM
      1 O1         -7.9725    1.3620   56.1349 O.2     1  ZINC000375477402   -0.5600
      2 C2         -9.1390    1.0583   55.9754 C.2     1  ZINC000375477402    0.7200
      3 N3         -9.7791    1.4132   54.8436 N.am    1  ZINC000375477402   -0.7300
      4 C4         -9.0709    2.1700   53.8082 C.3     1  ZINC000375477402    0.1800
      5 H5         -8.3276    2.8164   54.2748 H       1  ZINC000375477402    0.1500
      6 C6         -8.3849    1.2132   52.8673 C.ar    1  ZINC000375477402   -0.1300
      7 C7         -8.9031   -0.0529   52.6703 C.ar    1  ZINC000375477402   -0.0800
      8 C8         -8.2750   -0.9319   51.8075 C.ar    1  ZINC000375477402   -0.0900
      9 C9         -7.1275   -0.5463   51.1403 C.ar    1  ZINC000375477402   -0.1100
     10 C10        -6.6062    0.7209   51.3355 C.ar    1  ZINC000375477402    0.0800
     11 F11        -5.4847    1.0985   50.6837 F       1  ZINC000375477402   -0.1200
     12 C12        -7.2394    1.6043   52.1963 C.ar    1  ZINC000375477402    0.1000
     13 F13        -6.7323    2.8418   52.3885 F       1  ZINC000375477402   -0.1100
     14 C14       -10.0712    3.0243   53.0269 C.3     1  ZINC000375477402    0.4400
     15 F15       -11.0454    2.1977   52.4570 F       1  ZINC000375477402   -0.1600
     16 F16       -10.6826    3.9364   53.8939 F       1  ZINC000375477402   -0.1700
     17 F17        -9.4002    3.7202   52.0155 F       1  ZINC000375477402   -0.1800
     18 N18        -9.7904    0.3622   56.9280 N.am    1  ZINC000375477402   -0.6300
     19 C19       -11.1978   -0.0742   56.8632 C.3     1  ZINC000375477402    0.1000
     20 C20       -11.2814   -1.2938   57.8167 C.3     1  ZINC000375477402   -0.1200
     21 C21       -10.3125   -0.8715   58.9436 C.3     1  ZINC000375477402   -0.1100
     22 C22        -9.2137   -0.0944   58.2029 C.3     1  ZINC000375477402    0.1400
     23 C23       -11.0303    0.0227   59.9469 C.3     1  ZINC000375477402   -0.1100
     24 C24       -10.0669    0.3739   61.0867 C.3     1  ZINC000375477402   -0.1600
     25 C25        -9.5314   -0.9202   61.7053 C.3     1  ZINC000375477402    0.0600
     26 O26        -8.8756   -1.6945   60.6989 O.3     1  ZINC000375477402   -0.3800
     27 C27        -9.7314   -2.1015   59.6276 C.3     1  ZINC000375477402    0.0800
     28 H28       -10.7085    1.1675   54.7147 H       1  ZINC000375477402    0.4000
     29 H29        -9.7993   -0.3561   53.1910 H       1  ZINC000375477402    0.1400
     30 H30        -8.6810   -1.9209   51.6550 H       1  ZINC000375477402    0.1500
     31 H31        -6.6376   -1.2339   50.4669 H       1  ZINC000375477402    0.1500
     32 H32       -11.8578    0.7221   57.2075 H       1  ZINC000375477402    0.0700
     33 H33       -11.4568   -0.3695   55.8465 H       1  ZINC000375477402    0.0700
     34 H34       -12.2939   -1.4221   58.1993 H       1  ZINC000375477402    0.0900
     35 H35       -10.9342   -2.2010   57.3223 H       1  ZINC000375477402    0.0800
     36 H36        -8.3589   -0.7452   58.0183 H       1  ZINC000375477402    0.0800
     37 H37        -8.9059    0.7679   58.7943 H       1  ZINC000375477402    0.0700
     38 H38       -11.3572    0.9369   59.4515 H       1  ZINC000375477402    0.0700
     39 H39       -11.8953   -0.5036   60.3503 H       1  ZINC000375477402    0.0700
     40 H40        -9.2366    0.9612   60.6943 H       1  ZINC000375477402    0.0700
     41 H41       -10.5955    0.9497   61.8464 H       1  ZINC000375477402    0.0800
     42 H42        -8.8223   -0.6780   62.4970 H       1  ZINC000375477402    0.1000
     43 H43       -10.3595   -1.4932   62.1223 H       1  ZINC000375477402    0.0500
     44 H44       -10.5418   -2.7139   60.0230 H       1  ZINC000375477402    0.0600
     45 H45        -9.1577   -2.6818   58.9049 H       1  ZINC000375477402    0.1000
@<TRIPOS>BOND
     1     1     2    2
     2     2     3   am
     3     2    18   am
     4     3     4    1
     5     3    28    1
     6     4     5    1
     7     4     6    1
     8     4    14    1
     9     6    12   ar
    10     6     7   ar
    11     7     8   ar
    12     7    29    1
    13     8     9   ar
    14     8    30    1
    15     9    10   ar
    16     9    31    1
    17    10    11    1
    18    10    12   ar
    19    12    13    1
    20    14    15    1
    21    14    16    1
    22    14    17    1
    23    18    22    1
    24    18    19    1
    25    19    20    1
    26    19    32    1
    27    19    33    1
    28    20    21    1
    29    20    34    1
    30    20    35    1
    31    21    27    1
    32    21    22    1
    33    21    23    1
    34    22    36    1
    35    22    37    1
    36    23    24    1
    37    23    38    1
    38    23    39    1
    39    24    25    1
    40    24    40    1
    41    24    41    1
    42    25    26    1
    43    25    42    1
    44    25    43    1
    45    26    27    1
    46    27    44    1
    47    27    45    1
@<TRIPOS>SUBSTRUCTURE
     1 ZINC000375477402        1 TEMP              0 ****  ****    0 ROOT


##########                                Name:    ZINC001010141213
##########                DOCK_Rotatable_Bonds:                   4
##########                         Heavy_Atoms:                  24
##########                    Molecular_Weight:             330.346
##########                DOCK_Rotatable_Bonds:                   4
##########                       Formal_Charge:          -0.0100003
##########                     HBond_Acceptors:                   9
##########                        HBond_Donors:                   1
##########                         Heavy_Atoms:                  24
##########                          Grid_Score:          -27.327852
##########                     Grid_vdw_energy:          -26.434210
##########                      Grid_es_energy:           -0.893642
##########           Internal_energy_repulsive:           17.003601

@<TRIPOS>MOLECULE
ZINC001010141213
 42 44 1 0 0
SMALL
USER_CHARGES


@<TRIPOS>ATOM
      1 C1        -14.0632   -0.5206   62.6170 C.3     1  ZINC001010141213   -0.0800
      2 C2        -13.2618    0.6282   62.0610 C.2     1  ZINC001010141213   -0.1500
      3 C3        -11.9251    0.6227   61.7020 C.2     1  ZINC001010141213   -0.0400
      4 C4        -10.9925   -0.5125   61.7867 C.2     1  ZINC001010141213    0.6000
      5 O5        -10.0600   -0.4768   62.5668 O.2     1  ZINC001010141213   -0.5100
      6 N6        -11.1718   -1.5921   60.9999 N.am    1  ZINC001010141213   -0.6100
      7 C7        -12.2905   -1.6466   60.0485 C.3     1  ZINC001010141213    0.0900
      8 C8        -11.7294   -1.9203   58.6475 C.3     1  ZINC001010141213    0.0700
      9 N9        -10.8094   -3.0637   58.7252 N.am    1  ZINC001010141213   -0.6000
     10 C10       -10.9880   -4.1426   57.9377 C.2     1  ZINC001010141213    0.5900
     11 O11       -10.2205   -5.0823   58.0110 O.2     1  ZINC001010141213   -0.5200
     12 C12       -12.1179   -4.1834   56.9844 C.2     1  ZINC001010141213    0.0300
     13 N13       -13.3241   -4.4828   57.4109 N.2     1  ZINC001010141213   -0.1800
     14 N14       -14.3371   -4.5314   56.6237 N.am    1  ZINC001010141213   -0.4400
     15 C15       -14.2247   -4.2771   55.3066 C.2     1  ZINC001010141213    0.4800
     16 O16       -15.2066   -4.3311   54.5848 O.2     1  ZINC001010141213   -0.5100
     17 C17       -12.9620   -3.9471   54.7660 C.2     1  ZINC001010141213   -0.1800
     18 C18       -11.8975   -3.8941   55.6161 C.2     1  ZINC001010141213   -0.0400
     19 C19        -9.6906   -3.0091   59.6767 C.3     1  ZINC001010141213    0.1000
     20 C20       -10.2484   -2.7330   61.0736 C.3     1  ZINC001010141213    0.1000
     21 N21       -11.6450    1.8821   61.2534 N.pl3   1  ZINC001010141213   -0.2700
     22 C22       -10.3393    2.3341   60.7667 C.3     1  ZINC001010141213    0.0900
     23 N23       -12.7015    2.6095   61.3228 N.2     1  ZINC001010141213   -0.2800
     24 C24       -13.7116    1.9229   61.7927 C.2     1  ZINC001010141213    0.0100
     25 H25       -14.5095   -1.0829   61.7967 H       1  ZINC001010141213    0.0700
     26 H26       -13.4088   -1.1753   63.1924 H       1  ZINC001010141213    0.0600
     27 H27       -14.8510   -0.1346   63.2638 H       1  ZINC001010141213    0.0700
     28 H28       -12.9731   -2.4477   60.3320 H       1  ZINC001010141213    0.0800
     29 H29       -12.8196   -0.6937   60.0508 H       1  ZINC001010141213    0.1000
     30 H30       -12.5468   -2.1542   57.9653 H       1  ZINC001010141213    0.1400
     31 H31       -11.1920   -1.0418   58.2906 H       1  ZINC001010141213    0.0800
     32 H32       -15.2073   -4.7576   56.9879 H       1  ZINC001010141213    0.4500
     33 H33       -12.8444   -3.7388   53.7129 H       1  ZINC001010141213    0.1700
     34 H34       -10.9107   -3.6463   55.2539 H       1  ZINC001010141213    0.1700
     35 H35        -9.1614   -3.9620   59.6743 H       1  ZINC001010141213    0.1100
     36 H36        -9.0079   -2.2080   59.3931 H       1  ZINC001010141213    0.0800
     37 H37        -9.4300   -2.4993   61.7547 H       1  ZINC001010141213    0.1100
     38 H38       -10.7869   -3.6101   61.4323 H       1  ZINC001010141213    0.0800
     39 H39       -10.3054    2.2450   59.6809 H       1  ZINC001010141213    0.0900
     40 H40       -10.1862    3.3753   61.0508 H       1  ZINC001010141213    0.1000
     41 H41        -9.5547    1.7184   61.2065 H       1  ZINC001010141213    0.0900
     42 H42       -14.7135    2.2937   61.9514 H       1  ZINC001010141213    0.1900
@<TRIPOS>BOND
     1     1     2    1
     2     1    25    1
     3     1    26    1
     4     1    27    1
     5     2    24    1
     6     2     3    2
     7     3     4    1
     8     3    21    1
     9     4     5    2
    10     4     6   am
    11     6    20    1
    12     6     7    1
    13     7     8    1
    14     7    28    1
    15     7    29    1
    16     8     9    1
    17     8    30    1
    18     8    31    1
    19     9    10   am
    20     9    19    1
    21    10    11    2
    22    10    12    1
    23    12    18    1
    24    12    13    2
    25    13    14    1
    26    14    15   am
    27    14    32    1
    28    15    16    2
    29    15    17    1
    30    17    18    2
    31    17    33    1
    32    18    34    1
    33    19    20    1
    34    19    35    1
    35    19    36    1
    36    20    37    1
    37    20    38    1
    38    21    22    1
    39    21    23    1
    40    22    39    1
    41    22    40    1
    42    22    41    1
    43    23    24    2
    44    24    42    1
@<TRIPOS>SUBSTRUCTURE
     1 ZINC001010141213        1 TEMP              0 ****  ****    0 ROOT


##########                                Name:    ZINC000931749147
##########                DOCK_Rotatable_Bonds:                   5
##########                         Heavy_Atoms:                  25
##########                    Molecular_Weight:             354.397
##########                DOCK_Rotatable_Bonds:                   5
##########                       Formal_Charge:        -4.76837e-07
##########                     HBond_Acceptors:                   7
##########                        HBond_Donors:                   1
##########                         Heavy_Atoms:                  25
##########                          Grid_Score:          -27.318647
##########                     Grid_vdw_energy:          -26.388739
##########                      Grid_es_energy:           -0.929909
##########           Internal_energy_repulsive:           82.844604

@<TRIPOS>MOLECULE
ZINC000931749147
 49 51 1 0 0
SMALL
USER_CHARGES


@<TRIPOS>ATOM
      1 C1        -11.6276    2.8888   60.3104 C.3     1  ZINC000931749147   -0.1100
      2 C2        -10.7109    3.1426   59.1416 C.ar    1  ZINC000931749147   -0.1300
      3 C3         -9.8724    2.1352   58.6848 C.ar    1  ZINC000931749147    0.1800
      4 N4         -9.8777    0.8817   59.3094 N.am    1  ZINC000931749147   -0.6800
      5 C5        -10.5518   -0.1450   58.7544 C.2     1  ZINC000931749147    0.7100
      6 O6        -11.1553    0.0171   57.7112 O.2     1  ZINC000931749147   -0.5500
      7 N7        -10.5570   -1.3512   59.3555 N.am    1  ZINC000931749147   -0.6200
      8 C8         -9.8341   -1.5715   60.6181 C.3     1  ZINC000931749147    0.0700
      9 C9         -8.9554   -2.8177   60.4611 C.3     1  ZINC000931749147    0.0500
     10 O10        -9.7580   -3.9035   59.9913 O.3     1  ZINC000931749147   -0.3700
     11 C11       -10.3367   -3.6884   58.7018 C.3     1  ZINC000931749147    0.0500
     12 C12       -11.2908   -2.4853   58.7717 C.3     1  ZINC000931749147    0.1300
     13 H13       -12.1498   -2.7337   59.3949 H       1  ZINC000931749147    0.0900
     14 C14       -11.7645   -2.1207   57.3632 C.3     1  ZINC000931749147   -0.1100
     15 C15       -12.3234   -3.3674   56.6745 C.3     1  ZINC000931749147   -0.1000
     16 C16       -13.4979   -3.9193   57.4884 C.3     1  ZINC000931749147   -0.1500
     17 C17       -14.1002   -5.1185   56.7518 C.3     1  ZINC000931749147    0.0600
     18 O18       -14.5101   -4.7155   55.4434 O.3     1  ZINC000931749147   -0.3800
     19 C19       -13.4452   -4.2349   54.6206 C.3     1  ZINC000931749147    0.0600
     20 C20       -12.8166   -3.0001   55.2715 C.3     1  ZINC000931749147   -0.1500
     21 C21        -9.0285    2.3714   57.6076 C.ar    1  ZINC000931749147   -0.1200
     22 C22        -9.0241    3.6078   56.9918 C.ar    1  ZINC000931749147   -0.1100
     23 C23        -9.8603    4.6125   57.4473 C.ar    1  ZINC000931749147    0.0500
     24 F24        -9.8544    5.8210   56.8434 F       1  ZINC000931749147   -0.1300
     25 C25       -10.7083    4.3779   58.5191 C.ar    1  ZINC000931749147    0.0900
     26 F26       -11.5239    5.3595   58.9626 F       1  ZINC000931749147   -0.1200
     27 H27       -12.5809    2.5045   59.9478 H       1  ZINC000931749147    0.0800
     28 H28       -11.1714    2.1579   60.9780 H       1  ZINC000931749147    0.0700
     29 H29       -11.7935    3.8207   60.8511 H       1  ZINC000931749147    0.0800
     30 H30        -9.3964    0.7523   60.1416 H       1  ZINC000931749147    0.4100
     31 H31        -9.2085   -0.7066   60.8385 H       1  ZINC000931749147    0.0800
     32 H32       -10.5476   -1.7250   61.4276 H       1  ZINC000931749147    0.0900
     33 H33        -8.1609   -2.6149   59.7428 H       1  ZINC000931749147    0.0600
     34 H34        -8.5180   -3.0786   61.4248 H       1  ZINC000931749147    0.1100
     35 H35        -9.5473   -3.4888   57.9772 H       1  ZINC000931749147    0.0600
     36 H36       -10.8932   -4.5757   58.3999 H       1  ZINC000931749147    0.1100
     37 H37       -12.5432   -1.3609   57.4271 H       1  ZINC000931749147    0.1100
     38 H38       -10.9247   -1.7328   56.7866 H       1  ZINC000931749147    0.0700
     39 H39       -11.5423   -4.1240   56.6000 H       1  ZINC000931749147    0.0700
     40 H40       -13.1445   -4.2348   58.4700 H       1  ZINC000931749147    0.0700
     41 H41       -14.2562   -3.1449   57.6047 H       1  ZINC000931749147    0.0700
     42 H42       -13.3533   -5.9084   56.6714 H       1  ZINC000931749147    0.0500
     43 H43       -14.9633   -5.4890   57.3050 H       1  ZINC000931749147    0.0900
     44 H44       -12.6898   -5.0132   54.5124 H       1  ZINC000931749147    0.0500
     45 H45       -13.8363   -3.9688   53.6385 H       1  ZINC000931749147    0.0900
     46 H46       -13.5611   -2.2072   55.3432 H       1  ZINC000931749147    0.0700
     47 H47       -11.9759   -2.6582   54.6678 H       1  ZINC000931749147    0.0700
     48 H48        -8.3754    1.5884   57.2515 H       1  ZINC000931749147    0.1800
     49 H49        -8.3674    3.7910   56.1542 H       1  ZINC000931749147    0.1500
@<TRIPOS>BOND
     1     1     2    1
     2     1    27    1
     3     1    28    1
     4     1    29    1
     5     2    25   ar
     6     2     3   ar
     7     3     4    1
     8     3    21   ar
     9     4     5   am
    10     4    30    1
    11     5     6    2
    12     5     7   am
    13     7    12    1
    14     7     8    1
    15     8     9    1
    16     8    31    1
    17     8    32    1
    18     9    10    1
    19     9    33    1
    20     9    34    1
    21    10    11    1
    22    11    12    1
    23    11    35    1
    24    11    36    1
    25    12    13    1
    26    12    14    1
    27    14    15    1
    28    14    37    1
    29    14    38    1
    30    15    20    1
    31    15    16    1
    32    15    39    1
    33    16    17    1
    34    16    40    1
    35    16    41    1
    36    17    18    1
    37    17    42    1
    38    17    43    1
    39    18    19    1
    40    19    20    1
    41    19    44    1
    42    19    45    1
    43    20    46    1
    44    20    47    1
    45    21    22   ar
    46    21    48    1
    47    22    23   ar
    48    22    49    1
    49    23    24    1
    50    23    25   ar
    51    25    26    1
@<TRIPOS>SUBSTRUCTURE
     1 ZINC000931749147        1 TEMP              0 ****  ****    0 ROOT


##########                                Name:    ZINC000888733009
##########                DOCK_Rotatable_Bonds:                   6
##########                         Heavy_Atoms:                  25
##########                    Molecular_Weight:             360.434
##########                DOCK_Rotatable_Bonds:                   6
##########                       Formal_Charge:        -1.02073e-06
##########                     HBond_Acceptors:                   7
##########                        HBond_Donors:                   2
##########                         Heavy_Atoms:                  25
##########                          Grid_Score:          -27.178307
##########                     Grid_vdw_energy:          -27.096186
##########                      Grid_es_energy:           -0.082121
##########           Internal_energy_repulsive:           18.903204

@<TRIPOS>MOLECULE
ZINC000888733009
 45 48 1 0 0
SMALL
USER_CHARGES


@<TRIPOS>ATOM
      1 C1         -9.4663    0.8222   62.9040 C.3     1  ZINC000888733009   -0.1500
      2 C2        -10.5302   -0.1853   62.4636 C.3     1  ZINC000888733009    0.0700
      3 H3        -10.7187   -0.9081   63.2574 H       1  ZINC000888733009    0.0700
      4 C4        -10.0835   -0.9096   61.1710 C.3     1  ZINC000888733009   -0.1300
      5 C5        -11.3861   -1.0647   60.3747 C.3     1  ZINC000888733009   -0.1100
      6 C6        -11.3375   -0.5969   58.9224 C.3     1  ZINC000888733009   -0.1300
      7 C7        -12.2509   -1.7936   58.5987 C.3     1  ZINC000888733009    0.1200
      8 N8        -11.8939   -2.4842   57.3570 N.am    1  ZINC000888733009   -0.7100
      9 C9        -12.1713   -1.9166   56.1664 C.2     1  ZINC000888733009    0.5900
     10 O10       -12.7171   -0.8295   56.1230 O.2     1  ZINC000888733009   -0.5600
     11 C11       -11.8156   -2.6083   54.9240 C.2     1  ZINC000888733009   -0.2400
     12 C12       -10.9472   -2.0983   53.9933 C.2     1  ZINC000888733009    0.0800
     13 N13       -10.3006   -0.8785   54.1045 N.am    1  ZINC000888733009   -0.6100
     14 C14        -9.4373   -0.4837   53.1477 C.2     1  ZINC000888733009    0.6000
     15 O15        -9.2272   -1.1982   52.1852 O.2     1  ZINC000888733009   -0.4900
     16 C16        -8.7516    0.8065   53.2663 C.2     1  ZINC000888733009   -0.0900
     17 C17        -7.8675    1.3312   52.3671 C.2     1  ZINC000888733009   -0.1000
     18 C18        -7.4611    2.5734   52.8788 C.2     1  ZINC000888733009   -0.2300
     19 C19        -8.1066    2.7505   54.0528 C.2     1  ZINC000888733009    0.0100
     20 O20        -8.8876    1.6864   54.2800 O.3     1  ZINC000888733009   -0.1600
     21 S21       -10.7725   -3.1718   52.6810 S.3     1  ZINC000888733009    0.3000
     22 C22       -11.8832   -4.3345   53.3835 C.2     1  ZINC000888733009   -0.2800
     23 C23       -12.3385   -3.9046   54.5515 C.2     1  ZINC000888733009   -0.0900
     24 C24       -11.6899   -2.4704   59.8630 C.3     1  ZINC000888733009   -0.1400
     25 C25       -12.4712   -0.4215   61.2485 C.3     1  ZINC000888733009    0.0700
     26 O26       -11.7521    0.4981   62.1051 O.3     1  ZINC000888733009   -0.3700
     27 H27        -9.8071    1.3426   63.7991 H       1  ZINC000888733009    0.0600
     28 H28        -8.5363    0.2970   63.1210 H       1  ZINC000888733009    0.0700
     29 H29        -9.2977    1.5450   62.1057 H       1  ZINC000888733009    0.0600
     30 H30        -9.3668   -0.3014   60.6189 H       1  ZINC000888733009    0.0800
     31 H31        -9.6590   -1.8857   61.4057 H       1  ZINC000888733009    0.0800
     32 H32       -11.8104    0.3715   58.7585 H       1  ZINC000888733009    0.0800
     33 H33       -10.3472   -0.6679   58.4728 H       1  ZINC000888733009    0.0900
     34 H34       -13.3137   -1.5607   58.6623 H       1  ZINC000888733009    0.1200
     35 H35       -11.4578   -3.3499   57.3916 H       1  ZINC000888733009    0.4000
     36 H36       -10.4690   -0.3085   54.8710 H       1  ZINC000888733009    0.4400
     37 H37        -7.5435    0.8779   51.4420 H       1  ZINC000888733009    0.1700
     38 H38        -6.7634    3.2587   52.4205 H       1  ZINC000888733009    0.1600
     39 H39        -8.0117    3.6105   54.6991 H       1  ZINC000888733009    0.2200
     40 H40       -12.1556   -5.2749   52.9276 H       1  ZINC000888733009    0.1700
     41 H41       -13.0356   -4.4619   55.1597 H       1  ZINC000888733009    0.1500
     42 H42       -10.7992   -3.0712   59.6794 H       1  ZINC000888733009    0.0900
     43 H43       -12.4439   -2.9960   60.4491 H       1  ZINC000888733009    0.0800
     44 H44       -13.1887    0.1167   60.6293 H       1  ZINC000888733009    0.0900
     45 H45       -12.9767   -1.1795   61.8467 H       1  ZINC000888733009    0.0700
@<TRIPOS>BOND
     1     1     2    1
     2     1    27    1
     3     1    28    1
     4     1    29    1
     5     2     3    1
     6     2    26    1
     7     2     4    1
     8     4     5    1
     9     4    30    1
    10     4    31    1
    11     5    24    1
    12     5     6    1
    13     5    25    1
    14     6     7    1
    15     6    32    1
    16     6    33    1
    17     7     8    1
    18     7    24    1
    19     7    34    1
    20     8     9   am
    21     8    35    1
    22     9    10    2
    23     9    11    1
    24    11    23    1
    25    11    12    2
    26    12    13    1
    27    12    21    1
    28    13    14   am
    29    13    36    1
    30    14    15    2
    31    14    16    1
    32    16    20    1
    33    16    17    2
    34    17    18    1
    35    17    37    1
    36    18    19    2
    37    18    38    1
    38    19    20    1
    39    19    39    1
    40    21    22    1
    41    22    23    2
    42    22    40    1
    43    23    41    1
    44    24    42    1
    45    24    43    1
    46    25    26    1
    47    25    44    1
    48    25    45    1
@<TRIPOS>SUBSTRUCTURE
     1 ZINC000888733009        1 TEMP              0 ****  ****    0 ROOT


##########                                Name:    ZINC001456096501
##########                DOCK_Rotatable_Bonds:                   7
##########                         Heavy_Atoms:                  24
##########                    Molecular_Weight:             333.431
##########                DOCK_Rotatable_Bonds:                   7
##########                       Formal_Charge:          -0.0200003
##########                     HBond_Acceptors:                   6
##########                        HBond_Donors:                   0
##########                         Heavy_Atoms:                  24
##########                          Grid_Score:          -26.958534
##########                     Grid_vdw_energy:          -26.106752
##########                      Grid_es_energy:           -0.851781
##########           Internal_energy_repulsive:          127.338081

@<TRIPOS>MOLECULE
ZINC001456096501
 51 52 1 0 0
SMALL
USER_CHARGES


@<TRIPOS>ATOM
      1 C1         -8.7901   -3.2569   60.1256 C.3     1  ZINC001456096501    0.0400
      2 O2         -9.7335   -3.3536   59.0567 O.3     1  ZINC001456096501   -0.2900
      3 C3        -11.0121   -3.0015   59.3313 C.ar    1  ZINC001456096501    0.3700
      4 N4        -11.3128   -2.4866   60.5113 N.ar    1  ZINC001456096501   -0.5400
      5 C5        -12.5444   -2.1295   60.8205 C.ar    1  ZINC001456096501    0.1600
      6 C6        -13.5815   -2.2795   59.9178 C.ar    1  ZINC001456096501   -0.2200
      7 C7        -13.3236   -2.8135   58.6675 C.ar    1  ZINC001456096501   -0.0200
      8 C8        -12.0086   -3.1801   58.3597 C.ar    1  ZINC001456096501   -0.2000
      9 C9        -11.6777   -3.7536   57.0413 C.2     1  ZINC001456096501    0.5900
     10 O10       -11.4955   -4.9503   56.9273 O.2     1  ZINC001456096501   -0.5100
     11 N11       -11.5775   -2.9509   55.9633 N.am    1  ZINC001456096501   -0.6200
     12 C12       -11.2557   -3.3877   54.5968 C.3     1  ZINC001456096501    0.1000
     13 C13       -11.2263   -2.1265   53.7078 C.3     1  ZINC001456096501   -0.1200
     14 C14       -10.9757   -0.9865   54.7299 C.3     1  ZINC001456096501   -0.1200
     15 H15        -9.9146   -0.8969   54.9628 H       1  ZINC001456096501    0.0900
     16 C16       -11.5360    0.3420   54.2180 C.3     1  ZINC001456096501    0.1200
     17 N17       -10.4644    1.3401   54.1761 N.am    1  ZINC001456096501   -0.6200
     18 C18       -10.3845    2.3728   55.2121 C.3     1  ZINC001456096501    0.0600
     19 C19        -9.5520    1.3081   53.1847 C.2     1  ZINC001456096501    0.5200
     20 O20        -9.6181    0.4532   52.3270 O.2     1  ZINC001456096501   -0.5300
     21 C21        -8.4497    2.3348   53.1417 C.3     1  ZINC001456096501   -0.0800
     22 C22        -9.0287    3.6874   52.7217 C.3     1  ZINC001456096501   -0.1300
     23 C23        -7.8150    2.4602   54.5282 C.3     1  ZINC001456096501   -0.1500
     24 C24        -7.3863    1.8996   52.1315 C.3     1  ZINC001456096501   -0.1700
     25 C25       -11.7787   -1.4905   55.9578 C.3     1  ZINC001456096501    0.1200
     26 H26        -8.7412   -2.2255   60.4750 H       1  ZINC001456096501    0.0600
     27 H27        -9.1024   -3.9038   60.9456 H       1  ZINC001456096501    0.0600
     28 H28        -7.8071   -3.5676   59.7719 H       1  ZINC001456096501    0.1000
     29 H29       -12.7467   -1.7131   61.7961 H       1  ZINC001456096501    0.1700
     30 H30       -14.5846   -1.9826   60.1866 H       1  ZINC001456096501    0.1500
     31 H31       -14.1169   -2.9407   57.9457 H       1  ZINC001456096501    0.1500
     32 H32       -10.2801   -3.8737   54.5830 H       1  ZINC001456096501    0.0700
     33 H33       -12.0204   -4.0764   54.2379 H       1  ZINC001456096501    0.0700
     34 H34       -10.4119   -2.1828   52.9855 H       1  ZINC001456096501    0.0900
     35 H35       -12.1823   -1.9885   53.2027 H       1  ZINC001456096501    0.0800
     36 H36       -11.9424    0.2029   53.2162 H       1  ZINC001456096501    0.0800
     37 H37       -12.3259    0.6848   54.8863 H       1  ZINC001456096501    0.0900
     38 H38        -9.7273    2.0341   56.0130 H       1  ZINC001456096501    0.0600
     39 H39        -9.9869    3.2912   54.7798 H       1  ZINC001456096501    0.0900
     40 H40       -11.3798    2.5618   55.6143 H       1  ZINC001456096501    0.0700
     41 H41        -9.7863    3.9976   53.4414 H       1  ZINC001456096501    0.0600
     42 H42        -8.2315    4.4300   52.6906 H       1  ZINC001456096501    0.0600
     43 H43        -9.4809    3.5981   51.7340 H       1  ZINC001456096501    0.0600
     44 H44        -7.5207    1.4727   54.8836 H       1  ZINC001456096501    0.0700
     45 H45        -6.9360    3.1019   54.4688 H       1  ZINC001456096501    0.0700
     46 H46        -8.5363    2.8952   55.2200 H       1  ZINC001456096501    0.0600
     47 H47        -7.8385    1.8103   51.1437 H       1  ZINC001456096501    0.0600
     48 H48        -6.5891    2.6422   52.1003 H       1  ZINC001456096501    0.0700
     49 H49        -6.9738    0.9359   52.4307 H       1  ZINC001456096501    0.0800
     50 H50       -12.8355   -1.2483   55.8454 H       1  ZINC001456096501    0.0800
     51 H51       -11.3839   -1.0532   56.8748 H       1  ZINC001456096501    0.0700
@<TRIPOS>BOND
     1     1     2    1
     2     1    26    1
     3     1    27    1
     4     1    28    1
     5     2     3    1
     6     3     8   ar
     7     3     4   ar
     8     4     5   ar
     9     5     6   ar
    10     5    29    1
    11     6     7   ar
    12     6    30    1
    13     7     8   ar
    14     7    31    1
    15     8     9    1
    16     9    10    2
    17     9    11   am
    18    11    25    1
    19    11    12    1
    20    12    13    1
    21    12    32    1
    22    12    33    1
    23    13    14    1
    24    13    34    1
    25    13    35    1
    26    14    15    1
    27    14    16    1
    28    14    25    1
    29    16    17    1
    30    16    36    1
    31    16    37    1
    32    17    18    1
    33    17    19   am
    34    18    38    1
    35    18    39    1
    36    18    40    1
    37    19    20    2
    38    19    21    1
    39    21    22    1
    40    21    23    1
    41    21    24    1
    42    22    41    1
    43    22    42    1
    44    22    43    1
    45    23    44    1
    46    23    45    1
    47    23    46    1
    48    24    47    1
    49    24    48    1
    50    24    49    1
    51    25    50    1
    52    25    51    1
@<TRIPOS>SUBSTRUCTURE
     1 ZINC001456096501        1 TEMP              0 ****  ****    0 ROOT


##########                                Name:    ZINC000879023512
##########                DOCK_Rotatable_Bonds:                   4
##########                         Heavy_Atoms:                  20
##########                    Molecular_Weight:             346.156
##########                DOCK_Rotatable_Bonds:                   4
##########                       Formal_Charge:        -5.96046e-08
##########                     HBond_Acceptors:                   7
##########                        HBond_Donors:                   1
##########                         Heavy_Atoms:                  20
##########                          Grid_Score:          -26.953255
##########                     Grid_vdw_energy:          -25.316177
##########                      Grid_es_energy:           -1.637078
##########           Internal_energy_repulsive:            3.645055

@<TRIPOS>MOLECULE
ZINC000879023512
 33 34 1 0 0
SMALL
USER_CHARGES


@<TRIPOS>ATOM
      1 O1         -9.2405   -1.5260   61.9460 O.2     1  ZINC000879023512   -0.5600
      2 C2         -9.9408   -0.5500   62.1345 C.2     1  ZINC000879023512    0.7200
      3 N3        -10.9783   -0.2963   61.3124 N.am    1  ZINC000879023512   -0.6800
      4 C4        -11.2461   -1.1531   60.2384 C.ar    1  ZINC000879023512    0.1800
      5 C5        -10.2884   -1.3537   59.2533 C.ar    1  ZINC000879023512   -0.0900
      6 C6        -10.5552   -2.1997   58.1944 C.ar    1  ZINC000879023512   -0.0700
      7 C7        -11.7754   -2.8466   58.1148 C.ar    1  ZINC000879023512   -0.0700
      8 Br8       -12.1371   -4.0041   56.6638 Br      1  ZINC000879023512    0.0200
      9 C9        -12.7317   -2.6485   59.0953 C.ar    1  ZINC000879023512    0.0000
     10 N10       -14.0361   -3.3423   59.0067 N.pl3   1  ZINC000879023512    0.0200
     11 O11       -14.8782   -3.1684   59.8694 O.2     1  ZINC000879023512   -0.1500
     12 O12       -14.2676   -4.0872   58.0713 O.2     1  ZINC000879023512   -0.1300
     13 C13       -12.4679   -1.8086   60.1592 C.ar    1  ZINC000879023512   -0.0500
     14 N14        -9.6829    0.2749   63.1685 N.am    1  ZINC000879023512   -0.6300
     15 C15        -8.5850    0.1210   64.1343 C.3     1  ZINC000879023512    0.0900
     16 C16        -8.7005    1.2790   65.1477 C.3     1  ZINC000879023512   -0.1200
     17 C17       -10.1899    1.6973   65.0292 C.3     1  ZINC000879023512   -0.1400
     18 H18       -10.8265    1.0508   65.6333 H       1  ZINC000879023512    0.1000
     19 C19       -10.3797    3.1653   65.4159 C.3     1  ZINC000879023512    0.0700
     20 F20       -11.7312    3.5075   65.2990 F       1  ZINC000879023512   -0.2100
     21 C21       -10.4509    1.4847   63.5149 C.3     1  ZINC000879023512    0.1300
     22 H22       -11.5394    0.4800   61.4651 H       1  ZINC000879023512    0.4200
     23 H23        -9.3359   -0.8483   59.3146 H       1  ZINC000879023512    0.1600
     24 H24        -9.8106   -2.3560   57.4279 H       1  ZINC000879023512    0.1600
     25 H25       -13.2144   -1.6547   60.9242 H       1  ZINC000879023512    0.1800
     26 H26        -8.6771   -0.8344   64.6510 H       1  ZINC000879023512    0.0700
     27 H27        -7.6267    0.1745   63.6178 H       1  ZINC000879023512    0.0700
     28 H28        -8.4764    0.9324   66.1566 H       1  ZINC000879023512    0.0900
     29 H29        -8.0450    2.1035   64.8676 H       1  ZINC000879023512    0.0900
     30 H30       -10.0549    3.3147   66.4456 H       1  ZINC000879023512    0.0800
     31 H31        -9.7867    3.7954   64.7529 H       1  ZINC000879023512    0.0800
     32 H32       -10.0950    2.3426   62.9445 H       1  ZINC000879023512    0.0800
     33 H33       -11.5130    1.3208   63.3323 H       1  ZINC000879023512    0.0900
@<TRIPOS>BOND
     1     1     2    2
     2     2     3   am
     3     2    14   am
     4     3     4    1
     5     3    22    1
     6     4    13   ar
     7     4     5   ar
     8     5     6   ar
     9     5    23    1
    10     6     7   ar
    11     6    24    1
    12     7     8    1
    13     7     9   ar
    14     9    10    1
    15     9    13   ar
    16    10    11    2
    17    10    12    2
    18    13    25    1
    19    14    21    1
    20    14    15    1
    21    15    16    1
    22    15    26    1
    23    15    27    1
    24    16    17    1
    25    16    28    1
    26    16    29    1
    27    17    18    1
    28    17    19    1
    29    17    21    1
    30    19    20    1
    31    19    30    1
    32    19    31    1
    33    21    32    1
    34    21    33    1
@<TRIPOS>SUBSTRUCTURE
     1 ZINC000879023512        1 TEMP              0 ****  ****    0 ROOT


##########                                Name:    ZINC001211202056
##########                DOCK_Rotatable_Bonds:                   4
##########                         Heavy_Atoms:                  23
##########                    Molecular_Weight:             386.181
##########                DOCK_Rotatable_Bonds:                   4
##########                       Formal_Charge:           0.0199999
##########                     HBond_Acceptors:                  11
##########                        HBond_Donors:                   3
##########                         Heavy_Atoms:                  23
##########                          Grid_Score:          -26.855686
##########                     Grid_vdw_energy:          -27.141953
##########                      Grid_es_energy:            0.286266
##########           Internal_energy_repulsive:            7.619065

@<TRIPOS>MOLECULE
ZINC001211202056
 31 32 1 0 0
SMALL
USER_CHARGES


@<TRIPOS>ATOM
      1 N1        -11.1701    0.4002   55.2649 N.pl3   1  ZINC001211202056   -0.8500
      2 C2        -10.7653   -0.5651   56.1909 C.ar    1  ZINC001211202056    0.2900
      3 C3        -10.1140   -0.1818   57.3556 C.ar    1  ZINC001211202056   -0.2000
      4 C4         -9.7149   -1.1384   58.2691 C.ar    1  ZINC001211202056    0.0400
      5 C5         -9.9628   -2.4763   58.0248 C.ar    1  ZINC001211202056   -0.7300
      6 S6         -9.4519   -3.6925   59.1929 S.o2    1  ZINC001211202056    2.6900
      7 O7         -9.8327   -4.9511   58.6543 O.2     1  ZINC001211202056   -0.9400
      8 O8         -8.1137   -3.3715   59.5471 O.2     1  ZINC001211202056   -0.9300
      9 N9        -10.3625   -3.4735   60.5586 N.am    1  ZINC001211202056   -1.0500
     10 C10       -10.3128   -2.2564   61.2442 C.ar    1  ZINC001211202056    0.1600
     11 C11        -9.1493   -1.8610   61.8979 C.ar    1  ZINC001211202056   -0.1200
     12 C12        -9.1486   -0.6454   62.5637 C.ar    1  ZINC001211202056   -0.0800
     13 C13       -10.2930    0.1288   62.5575 C.ar    1  ZINC001211202056    0.0400
     14 C14       -10.2987    1.4516   63.2796 C.3     1  ZINC001211202056    0.5300
     15 F15       -10.1012    2.4863   62.3589 F       1  ZINC001211202056   -0.1700
     16 F16       -11.5293    1.6272   63.9215 F       1  ZINC001211202056   -0.1600
     17 F17        -9.2710    1.4693   64.2286 F       1  ZINC001211202056   -0.1700
     18 N18       -11.3806   -0.2731   61.9283 N.ar    1  ZINC001211202056   -0.4100
     19 C19       -11.4232   -1.4198   61.2786 C.ar    1  ZINC001211202056    0.1600
     20 Cl20      -12.8833   -1.8953   60.4687 Cl      1  ZINC001211202056    0.0000
     21 C21       -10.6113   -2.8625   56.8657 C.ar    1  ZINC001211202056    0.0400
     22 C22       -11.0187   -1.9107   55.9507 C.ar    1  ZINC001211202056   -0.1400
     23 Cl23      -11.8327   -2.3958   54.4960 Cl      1  ZINC001211202056   -0.0500
     24 H24       -11.6286    0.1315   54.4533 H       1  ZINC001211202056    0.4100
     25 H25       -10.9963    1.3390   55.4355 H       1  ZINC001211202056    0.4100
     26 H26        -9.9192    0.8630   57.5472 H       1  ZINC001211202056    0.1400
     27 H27        -9.2083   -0.8406   59.1752 H       1  ZINC001211202056    0.1500
     28 H28       -10.9304   -4.1899   60.8829 H       1  ZINC001211202056    0.4400
     29 H29        -8.2688   -2.4863   61.8868 H       1  ZINC001211202056    0.2000
     30 H30        -8.2634   -0.3072   63.0818 H       1  ZINC001211202056    0.1700
     31 H31       -10.8035   -3.9085   56.6779 H       1  ZINC001211202056    0.1500
@<TRIPOS>BOND
     1     1     2    1
     2     1    24    1
     3     1    25    1
     4     2    22   ar
     5     2     3   ar
     6     3     4   ar
     7     3    26    1
     8     4     5   ar
     9     4    27    1
    10     5     6    1
    11     5    21   ar
    12     6     7    2
    13     6     8    2
    14     6     9   am
    15     9    10    1
    16     9    28    1
    17    10    19   ar
    18    10    11   ar
    19    11    12   ar
    20    11    29    1
    21    12    13   ar
    22    12    30    1
    23    13    14    1
    24    13    18   ar
    25    14    15    1
    26    14    16    1
    27    14    17    1
    28    18    19   ar
    29    19    20    1
    30    21    22   ar
    31    21    31    1
    32    22    23    1
@<TRIPOS>SUBSTRUCTURE
     1 ZINC001211202056        1 TEMP              0 ****  ****    0 ROOT


##########                                Name:    ZINC000345028113
##########                DOCK_Rotatable_Bonds:                   5
##########                         Heavy_Atoms:                  21
##########                    Molecular_Weight:             331.838
##########                DOCK_Rotatable_Bonds:                   5
##########                       Formal_Charge:         4.47035e-07
##########                     HBond_Acceptors:                   6
##########                        HBond_Donors:                   0
##########                         Heavy_Atoms:                  21
##########                          Grid_Score:          -26.819607
##########                     Grid_vdw_energy:          -27.419313
##########                      Grid_es_energy:            0.599706
##########           Internal_energy_repulsive:           17.079594

@<TRIPOS>MOLECULE
ZINC000345028113
 40 41 1 0 0
SMALL
USER_CHARGES


@<TRIPOS>ATOM
      1 C1        -12.1492    0.0564   62.5349 C.3     1  ZINC000345028113   -0.1700
      2 C2        -10.6309    0.0847   62.3478 C.3     1  ZINC000345028113    0.1400
      3 H3        -10.1598   -0.5413   63.1055 H       1  ZINC000345028113    0.1100
      4 C4        -10.1258    1.5246   62.4886 C.3     1  ZINC000345028113   -0.0700
      5 H5         -9.0401    1.5418   62.3934 H       1  ZINC000345028113    0.0900
      6 C6        -10.5296    2.0783   63.8565 C.3     1  ZINC000345028113   -0.1400
      7 S7        -10.8686    2.5368   61.1745 S.3     1  ZINC000345028113   -0.2400
      8 C8        -10.4128    1.6187   59.6738 C.3     1  ZINC000345028113   -0.1100
      9 C9        -10.8889    0.1693   59.8180 C.3     1  ZINC000345028113    0.1000
     10 N10       -10.2938   -0.4231   61.0169 N.am    1  ZINC000345028113   -0.6100
     11 C11        -9.4263   -1.4472   60.8943 C.2     1  ZINC000345028113    0.5200
     12 O12        -8.9283   -1.9418   61.8833 O.2     1  ZINC000345028113   -0.5300
     13 C13        -9.0749   -1.9776   59.5281 C.3     1  ZINC000345028113   -0.1400
     14 C14       -10.2485   -2.7916   58.9797 C.3     1  ZINC000345028113    0.0700
     15 O15       -10.2851   -2.6751   57.5559 O.3     1  ZINC000345028113   -0.3000
     16 C16       -11.3235   -3.2738   56.9140 C.ar    1  ZINC000345028113    0.1300
     17 C17       -11.7746   -4.5161   57.3327 C.ar    1  ZINC000345028113   -0.1700
     18 C18       -12.8305   -5.1235   56.6797 C.ar    1  ZINC000345028113   -0.1100
     19 C19       -13.4380   -4.4924   55.6079 C.ar    1  ZINC000345028113    0.0800
     20 F20       -14.4703   -5.0874   54.9712 F       1  ZINC000345028113   -0.1300
     21 C21       -12.9891   -3.2514   55.1880 C.ar    1  ZINC000345028113   -0.1100
     22 C22       -11.9367   -2.6391   55.8424 C.ar    1  ZINC000345028113   -0.0400
     23 Cl23      -11.3738   -1.0835   55.3161 Cl      1  ZINC000345028113   -0.0400
     24 H24       -12.5086   -0.9678   62.4349 H       1  ZINC000345028113    0.0600
     25 H25       -12.4002    0.4344   63.5259 H       1  ZINC000345028113    0.0800
     26 H26       -12.6204    0.6824   61.7771 H       1  ZINC000345028113    0.0800
     27 H27       -10.0913    1.4622   64.6417 H       1  ZINC000345028113    0.0800
     28 H28       -10.1694    3.1024   63.9547 H       1  ZINC000345028113    0.0700
     29 H29       -11.6157    2.0647   63.9477 H       1  ZINC000345028113    0.0700
     30 H30       -10.8902    2.0755   58.8069 H       1  ZINC000345028113    0.1200
     31 H31        -9.3301    1.6369   59.5490 H       1  ZINC000345028113    0.0900
     32 H32       -11.9752    0.1507   59.9045 H       1  ZINC000345028113    0.0900
     33 H33       -10.5844   -0.4021   58.9411 H       1  ZINC000345028113    0.1000
     34 H34        -8.8661   -1.1440   58.8574 H       1  ZINC000345028113    0.1100
     35 H35        -8.1935   -2.6146   59.6013 H       1  ZINC000345028113    0.1100
     36 H36       -10.1246   -3.8389   59.2555 H       1  ZINC000345028113    0.0800
     37 H37       -11.1807   -2.4134   59.3993 H       1  ZINC000345028113    0.0800
     38 H38       -11.3009   -5.0093   58.1685 H       1  ZINC000345028113    0.1500
     39 H39       -13.1816   -6.0914   57.0057 H       1  ZINC000345028113    0.1500
     40 H40       -13.4639   -2.7603   54.3515 H       1  ZINC000345028113    0.1500
@<TRIPOS>BOND
     1     1     2    1
     2     1    24    1
     3     1    25    1
     4     1    26    1
     5     2     3    1
     6     2    10    1
     7     2     4    1
     8     4     5    1
     9     4     6    1
    10     4     7    1
    11     6    27    1
    12     6    28    1
    13     6    29    1
    14     7     8    1
    15     8     9    1
    16     8    30    1
    17     8    31    1
    18     9    10    1
    19     9    32    1
    20     9    33    1
    21    10    11   am
    22    11    12    2
    23    11    13    1
    24    13    14    1
    25    13    34    1
    26    13    35    1
    27    14    15    1
    28    14    36    1
    29    14    37    1
    30    15    16    1
    31    16    22   ar
    32    16    17   ar
    33    17    18   ar
    34    17    38    1
    35    18    19   ar
    36    18    39    1
    37    19    20    1
    38    19    21   ar
    39    21    22   ar
    40    21    40    1
    41    22    23    1
@<TRIPOS>SUBSTRUCTURE
     1 ZINC000345028113        1 TEMP              0 ****  ****    0 ROOT


##########                                Name:    ZINC001135312623
##########                DOCK_Rotatable_Bonds:                   3
##########                         Heavy_Atoms:                  25
##########                    Molecular_Weight:             341.323
##########                DOCK_Rotatable_Bonds:                   3
##########                       Formal_Charge:        -1.78814e-07
##########                     HBond_Acceptors:                   8
##########                        HBond_Donors:                   2
##########                         Heavy_Atoms:                  25
##########                          Grid_Score:          -26.746180
##########                     Grid_vdw_energy:          -25.683651
##########                      Grid_es_energy:           -1.062529
##########           Internal_energy_repulsive:            4.106035

@<TRIPOS>MOLECULE
ZINC001135312623
 40 42 1 0 0
SMALL
USER_CHARGES


@<TRIPOS>ATOM
      1 C1         -0.5075    4.5499   47.7350 C.3     1  ZINC001135312623   -0.1300
      2 C2         -0.4722    3.4067   46.7537 C.ar    1  ZINC001135312623   -0.0600
      3 C3          0.5216    3.3476   45.7969 C.ar    1  ZINC001135312623   -0.1000
      4 C4          0.5545    2.2990   44.8956 C.ar    1  ZINC001135312623   -0.0300
      5 C5          1.6406    2.2377   43.8527 C.3     1  ZINC001135312623   -0.1300
      6 C6         -0.4067    1.3066   44.9497 C.ar    1  ZINC001135312623   -0.0200
      7 N7         -0.3678    0.1862   43.9832 N.pl3   1  ZINC001135312623    0.0200
      8 O8         -1.4062   -0.2918   43.5629 O.2     1  ZINC001135312623   -0.1500
      9 O9          0.7026   -0.2576   43.6082 O.2     1  ZINC001135312623   -0.1500
     10 C10        -1.4030    1.3593   45.9050 C.ar    1  ZINC001135312623   -0.0700
     11 C11        -1.4361    2.4082   46.8145 C.ar    1  ZINC001135312623    0.1500
     12 N12        -2.4434    2.4647   47.7829 N.am    1  ZINC001135312623   -0.6600
     13 C13        -2.2304    1.9442   49.0078 C.2     1  ZINC001135312623    0.5600
     14 O14        -1.1625    1.4256   49.2707 O.2     1  ZINC001135312623   -0.5000
     15 C15        -3.2932    2.0037   50.0297 C.ar    1  ZINC001135312623   -0.1600
     16 C16        -2.9883    2.4011   51.3343 C.ar    1  ZINC001135312623   -0.0400
     17 C17        -3.9809    2.4558   52.2881 C.ar    1  ZINC001135312623   -0.1500
     18 C18        -5.2849    2.1161   51.9514 C.ar    1  ZINC001135312623    0.2000
     19 N19        -6.3044    2.1614   52.9025 N.am    1  ZINC001135312623   -0.6700
     20 C20        -7.4748    1.5393   52.6565 C.2     1  ZINC001135312623    0.6600
     21 O21        -8.3706    1.6004   53.4752 O.2     1  ZINC001135312623   -0.4900
     22 O22        -7.6632    0.8519   51.5157 O.3     1  ZINC001135312623   -0.3400
     23 C23        -7.0179    1.3604   50.3160 C.3     1  ZINC001135312623    0.1100
     24 C24        -5.5919    1.7209   50.6502 C.ar    1  ZINC001135312623   -0.1800
     25 C25        -4.6087    1.6680   49.6927 C.ar    1  ZINC001135312623    0.0000
     26 H26         0.0789    4.2904   48.6164 H       1  ZINC001135312623    0.0900
     27 H27        -0.0880    5.4417   47.2692 H       1  ZINC001135312623    0.0800
     28 H28        -1.5388    4.7445   48.0292 H       1  ZINC001135312623    0.0700
     29 H29         1.2739    4.1211   45.7520 H       1  ZINC001135312623    0.1500
     30 H30         2.5242    1.7601   44.2759 H       1  ZINC001135312623    0.0900
     31 H31         1.2903    1.6607   42.9969 H       1  ZINC001135312623    0.0800
     32 H32         1.8927    3.2481   43.5309 H       1  ZINC001135312623    0.0800
     33 H33        -2.1536    0.5838   45.9466 H       1  ZINC001135312623    0.1700
     34 H34        -3.2953    2.8783   47.5732 H       1  ZINC001135312623    0.4200
     35 H35        -1.9740    2.6651   51.5951 H       1  ZINC001135312623    0.1400
     36 H36        -3.7453    2.7622   53.2965 H       1  ZINC001135312623    0.1500
     37 H37        -6.1717    2.6381   53.7368 H       1  ZINC001135312623    0.4300
     38 H38        -7.0293    0.5934   49.5415 H       1  ZINC001135312623    0.1300
     39 H39        -7.5464    2.2465   49.9641 H       1  ZINC001135312623    0.1000
     40 H40        -4.8497    1.3647   48.6845 H       1  ZINC001135312623    0.1500
@<TRIPOS>BOND
     1     1     2    1
     2     1    26    1
     3     1    27    1
     4     1    28    1
     5     2    11   ar
     6     2     3   ar
     7     3     4   ar
     8     3    29    1
     9     4     5    1
    10     4     6   ar
    11     5    30    1
    12     5    31    1
    13     5    32    1
    14     6     7    1
    15     6    10   ar
    16     7     8    2
    17     7     9    2
    18    10    11   ar
    19    10    33    1
    20    11    12    1
    21    12    13   am
    22    12    34    1
    23    13    14    2
    24    13    15    1
    25    15    25   ar
    26    15    16   ar
    27    16    17   ar
    28    16    35    1
    29    17    18   ar
    30    17    36    1
    31    18    24   ar
    32    18    19    1
    33    19    20   am
    34    19    37    1
    35    20    21    2
    36    20    22    1
    37    22    23    1
    38    23    24    1
    39    23    38    1
    40    23    39    1
    41    24    25   ar
    42    25    40    1
@<TRIPOS>SUBSTRUCTURE
     1 ZINC001135312623        1 TEMP              0 ****  ****    0 ROOT


##########                                Name:    ZINC000550782577
##########                DOCK_Rotatable_Bonds:                   5
##########                         Heavy_Atoms:                  25
##########                    Molecular_Weight:              338.45
##########                DOCK_Rotatable_Bonds:                   5
##########                       Formal_Charge:         -0.00999954
##########                     HBond_Acceptors:                   4
##########                        HBond_Donors:                   0
##########                         Heavy_Atoms:                  25
##########                          Grid_Score:          -26.574232
##########                     Grid_vdw_energy:          -25.349981
##########                      Grid_es_energy:           -1.224252
##########           Internal_energy_repulsive:          154.983337

@<TRIPOS>MOLECULE
ZINC000550782577
 51 53 1 0 0
SMALL
USER_CHARGES


@<TRIPOS>ATOM
      1 C1        -14.7034   -1.4618   55.1998 C.3     1  ZINC000550782577    0.0700
      2 N2        -13.3709   -2.0636   55.1090 N.am    1  ZINC000550782577   -0.5900
      3 C3        -12.7972   -2.2521   53.9042 C.2     1  ZINC000550782577    0.5800
      4 O4        -11.6916   -2.7515   53.8288 O.2     1  ZINC000550782577   -0.5400
      5 C5        -13.5131   -1.8512   52.6732 C.ar    1  ZINC000550782577    0.0300
      6 C6        -13.0407   -0.7780   51.9190 C.ar    1  ZINC000550782577   -0.0600
      7 C7        -13.7186   -0.4123   50.7696 C.ar    1  ZINC000550782577   -0.1200
      8 C8        -14.8526   -1.1351   50.4102 C.ar    1  ZINC000550782577    0.1100
      9 O9        -15.5474   -0.8105   49.2905 O.3     1  ZINC000550782577   -0.3000
     10 C10       -15.0748    0.3064   48.5347 C.3     1  ZINC000550782577    0.1000
     11 C11       -13.6268    0.0574   48.1080 C.3     1  ZINC000550782577   -0.2000
     12 C12       -15.9487    0.4877   47.2920 C.3     1  ZINC000550782577   -0.1400
     13 C13       -15.1430    1.5698   49.3949 C.3     1  ZINC000550782577   -0.2000
     14 C14       -15.2657   -2.1957   51.2130 C.ar    1  ZINC000550782577   -0.0100
     15 N15       -14.5962   -2.5207   52.2953 N.ar    1  ZINC000550782577   -0.4100
     16 C16       -12.6618   -2.4606   56.3281 C.3     1  ZINC000550782577    0.1400
     17 H17       -13.3026   -2.2980   57.1946 H       1  ZINC000550782577    0.1100
     18 C18       -12.2762   -3.9420   56.2417 C.3     1  ZINC000550782577   -0.1300
     19 C19       -11.7589   -4.3858   57.6085 C.3     1  ZINC000550782577   -0.0800
     20 C20       -10.6947   -3.4418   58.1038 C.ar    1  ZINC000550782577   -0.0800
     21 C21        -9.8605   -3.8845   59.1218 C.ar    1  ZINC000550782577   -0.1200
     22 C22        -8.8698   -3.0651   59.6228 C.ar    1  ZINC000550782577   -0.1200
     23 C23        -8.7062   -1.7927   59.1083 C.ar    1  ZINC000550782577   -0.1200
     24 C24        -9.5326   -1.3518   58.0951 C.ar    1  ZINC000550782577   -0.1200
     25 C25       -10.5278   -2.1762   57.5870 C.ar    1  ZINC000550782577   -0.0700
     26 C26       -11.3840   -1.6364   56.4714 C.3     1  ZINC000550782577   -0.0900
     27 H27       -15.4607   -2.2315   55.0506 H       1  ZINC000550782577    0.0600
     28 H28       -14.8324   -1.0112   56.1839 H       1  ZINC000550782577    0.0600
     29 H29       -14.8088   -0.6949   54.4324 H       1  ZINC000550782577    0.1100
     30 H30       -12.1572   -0.2391   52.2279 H       1  ZINC000550782577    0.1600
     31 H31       -13.3763    0.4149   50.1655 H       1  ZINC000550782577    0.1500
     32 H32       -13.6141   -0.5477   47.2015 H       1  ZINC000550782577    0.0700
     33 H33       -13.1358    1.0112   47.9150 H       1  ZINC000550782577    0.0800
     34 H34       -13.0988   -0.4686   48.9034 H       1  ZINC000550782577    0.0800
     35 H35       -16.9803    0.6651   47.5960 H       1  ZINC000550782577    0.0700
     36 H36       -15.5882    1.3397   46.7155 H       1  ZINC000550782577    0.0800
     37 H37       -15.9002   -0.4124   46.6792 H       1  ZINC000550782577    0.0700
     38 H38       -14.5167    1.4424   50.2779 H       1  ZINC000550782577    0.0800
     39 H39       -14.7868    2.4226   48.8168 H       1  ZINC000550782577    0.0800
     40 H40       -16.1738    1.7446   49.7028 H       1  ZINC000550782577    0.0700
     41 H41       -16.1447   -2.7605   50.9397 H       1  ZINC000550782577    0.1900
     42 H42       -13.1505   -4.5337   55.9704 H       1  ZINC000550782577    0.0700
     43 H43       -11.4955   -4.0750   55.4928 H       1  ZINC000550782577    0.0700
     44 H44       -12.5858   -4.3998   58.3186 H       1  ZINC000550782577    0.0800
     45 H45       -11.3397   -5.3886   57.5259 H       1  ZINC000550782577    0.0800
     46 H46        -9.9883   -4.8782   59.5249 H       1  ZINC000550782577    0.1200
     47 H47        -8.2247   -3.4166   60.4144 H       1  ZINC000550782577    0.1200
     48 H48        -7.9344   -1.1456   59.4982 H       1  ZINC000550782577    0.1200
     49 H49        -9.4042   -0.3573   57.6939 H       1  ZINC000550782577    0.1200
     50 H50       -10.8242   -1.6766   55.5370 H       1  ZINC000550782577    0.0800
     51 H51       -11.6461   -0.6008   56.6883 H       1  ZINC000550782577    0.0800
@<TRIPOS>BOND
     1     1     2    1
     2     1    27    1
     3     1    28    1
     4     1    29    1
     5     2     3   am
     6     2    16    1
     7     3     4    2
     8     3     5    1
     9     5    15   ar
    10     5     6   ar
    11     6     7   ar
    12     6    30    1
    13     7     8   ar
    14     7    31    1
    15     8     9    1
    16     8    14   ar
    17     9    10    1
    18    10    11    1
    19    10    12    1
    20    10    13    1
    21    11    32    1
    22    11    33    1
    23    11    34    1
    24    12    35    1
    25    12    36    1
    26    12    37    1
    27    13    38    1
    28    13    39    1
    29    13    40    1
    30    14    15   ar
    31    14    41    1
    32    16    17    1
    33    16    26    1
    34    16    18    1
    35    18    19    1
    36    18    42    1
    37    18    43    1
    38    19    20    1
    39    19    44    1
    40    19    45    1
    41    20    25   ar
    42    20    21   ar
    43    21    22   ar
    44    21    46    1
    45    22    23   ar
    46    22    47    1
    47    23    24   ar
    48    23    48    1
    49    24    25   ar
    50    24    49    1
    51    25    26    1
    52    26    50    1
    53    26    51    1
@<TRIPOS>SUBSTRUCTURE
     1 ZINC000550782577        1 TEMP              0 ****  ****    0 ROOT


##########                                Name:    ZINC000462219577
##########                DOCK_Rotatable_Bonds:                   8
##########                         Heavy_Atoms:                  31
##########                    Molecular_Weight:             418.539
##########                DOCK_Rotatable_Bonds:                   8
##########                       Formal_Charge:         -0.00999914
##########                     HBond_Acceptors:                   6
##########                        HBond_Donors:                   2
##########                         Heavy_Atoms:                  31
##########                          Grid_Score:          -26.418135
##########                     Grid_vdw_energy:          -26.096504
##########                      Grid_es_energy:           -0.321630
##########           Internal_energy_repulsive:           18.313553

@<TRIPOS>MOLECULE
ZINC000462219577
 61 64 1 0 0
SMALL
USER_CHARGES


@<TRIPOS>ATOM
      1 C1        -14.6136   -2.7797   59.6154 C.3     1  ZINC000462219577   -0.0700
      2 C2        -13.4443   -1.8764   59.9123 C.2     1  ZINC000462219577    0.0800
      3 N3        -13.4371   -0.8881   60.7702 N.2     1  ZINC000462219577   -0.2900
      4 N4        -12.1659   -0.2998   60.7500 N.pl3   1  ZINC000462219577   -0.3200
      5 C5        -11.7491    0.7908   61.5259 C.ar    1  ZINC000462219577    0.1500
      6 C6        -11.0463    0.5780   62.7042 C.ar    1  ZINC000462219577   -0.1100
      7 C7        -10.6370    1.6546   63.4665 C.ar    1  ZINC000462219577   -0.1000
      8 C8        -10.9269    2.9434   63.0573 C.ar    1  ZINC000462219577   -0.1200
      9 C9        -11.6271    3.1584   61.8845 C.ar    1  ZINC000462219577   -0.1000
     10 C10       -12.0333    2.0860   61.1146 C.ar    1  ZINC000462219577   -0.1300
     11 C11       -11.4120   -0.9706   59.8498 C.2     1  ZINC000462219577    0.0900
     12 C12        -9.9751   -0.6797   59.5013 C.3     1  ZINC000462219577   -0.0800
     13 C13        -9.9016   -0.0903   58.0912 C.3     1  ZINC000462219577    0.1700
     14 H14        -8.8945   -0.2203   57.6952 H       1  ZINC000462219577    0.1000
     15 C15       -10.2407    1.4008   58.1435 C.3     1  ZINC000462219577   -0.1600
     16 N16       -10.8603   -0.7789   57.2236 N.am    1  ZINC000462219577   -0.7400
     17 C17       -10.7350   -0.6992   55.8840 C.2     1  ZINC000462219577    0.7100
     18 O18        -9.8254   -0.0569   55.3958 O.2     1  ZINC000462219577   -0.5800
     19 N19       -11.6180   -1.3314   55.0858 N.am    1  ZINC000462219577   -0.7400
     20 C20       -11.4807   -1.2462   53.6298 C.3     1  ZINC000462219577    0.1600
     21 H21       -10.7407   -0.4868   53.3771 H       1  ZINC000462219577    0.1000
     22 C22       -11.0322   -2.6026   53.0770 C.3     1  ZINC000462219577   -0.1700
     23 C23       -12.1129   -3.6467   53.3699 C.3     1  ZINC000462219577    0.0700
     24 O24       -13.3496   -3.2256   52.7908 O.3     1  ZINC000462219577   -0.3700
     25 C25       -13.8420   -1.9861   53.3041 C.3     1  ZINC000462219577    0.1400
     26 H26       -13.9855   -2.0700   54.3814 H       1  ZINC000462219577    0.0600
     27 C27       -15.1573   -1.6568   52.6462 C.ar    1  ZINC000462219577   -0.0900
     28 C28       -15.2934   -1.7756   51.2757 C.ar    1  ZINC000462219577   -0.0900
     29 C29       -16.4999   -1.4735   50.6722 C.ar    1  ZINC000462219577   -0.1200
     30 C30       -17.5702   -1.0529   51.4393 C.ar    1  ZINC000462219577   -0.1200
     31 C31       -17.4343   -0.9350   52.8099 C.ar    1  ZINC000462219577   -0.1200
     32 C32       -16.2291   -1.2412   53.4138 C.ar    1  ZINC000462219577   -0.1100
     33 C33       -12.8304   -0.8731   53.0088 C.3     1  ZINC000462219577   -0.1500
     34 C34       -12.1778   -1.9539   59.3227 C.2     1  ZINC000462219577   -0.2600
     35 H35       -14.5889   -3.6383   60.2864 H       1  ZINC000462219577    0.0800
     36 H36       -15.5436   -2.2303   59.7622 H       1  ZINC000462219577    0.0700
     37 H37       -14.5539   -3.1237   58.5829 H       1  ZINC000462219577    0.0800
     38 H38       -10.8202   -0.4283   63.0245 H       1  ZINC000462219577    0.1300
     39 H39       -10.0903    1.4898   64.3831 H       1  ZINC000462219577    0.1300
     40 H40       -10.6061    3.7835   63.6553 H       1  ZINC000462219577    0.1300
     41 H41       -11.8527    4.1659   61.5679 H       1  ZINC000462219577    0.1300
     42 H42       -12.5801    2.2546   60.1986 H       1  ZINC000462219577    0.1300
     43 H43        -9.5654    0.0346   60.2155 H       1  ZINC000462219577    0.0900
     44 H44        -9.3977   -1.6034   59.5395 H       1  ZINC000462219577    0.1100
     45 H45       -11.2478    1.5308   58.5396 H       1  ZINC000462219577    0.0600
     46 H46        -9.5273    1.9132   58.7890 H       1  ZINC000462219577    0.0700
     47 H47       -10.1884    1.8207   57.1389 H       1  ZINC000462219577    0.0700
     48 H48       -11.5853   -1.2923   57.6132 H       1  ZINC000462219577    0.3900
     49 H49       -12.3443   -1.8429   55.4754 H       1  ZINC000462219577    0.3900
     50 H50       -10.8824   -2.5256   52.0001 H       1  ZINC000462219577    0.0800
     51 H51       -10.0991   -2.9003   53.5553 H       1  ZINC000462219577    0.0800
     52 H52       -11.8184   -4.6047   52.9413 H       1  ZINC000462219577    0.1000
     53 H53       -12.2337   -3.7524   54.4480 H       1  ZINC000462219577    0.0500
     54 H54       -14.4573   -2.1042   50.6764 H       1  ZINC000462219577    0.1300
     55 H55       -16.6061   -1.5658   49.6014 H       1  ZINC000462219577    0.1200
     56 H56       -18.5126   -0.8163   50.9677 H       1  ZINC000462219577    0.1200
     57 H57       -18.2704   -0.6061   53.4090 H       1  ZINC000462219577    0.1200
     58 H58       -16.1229   -1.1489   54.4846 H       1  ZINC000462219577    0.1200
     59 H59       -13.1842    0.0641   53.4384 H       1  ZINC000462219577    0.0800
     60 H60       -12.7167   -0.7608   51.9305 H       1  ZINC000462219577    0.0900
     61 H61       -11.8682   -2.6679   58.5738 H       1  ZINC000462219577    0.1500
@<TRIPOS>BOND
     1     1     2    1
     2     1    35    1
     3     1    36    1
     4     1    37    1
     5     2    34    1
     6     2     3    2
     7     3     4    1
     8     4     5    1
     9     4    11    1
    10     5    10   ar
    11     5     6   ar
    12     6     7   ar
    13     6    38    1
    14     7     8   ar
    15     7    39    1
    16     8     9   ar
    17     8    40    1
    18     9    10   ar
    19     9    41    1
    20    10    42    1
    21    11    12    1
    22    11    34    2
    23    12    13    1
    24    12    43    1
    25    12    44    1
    26    13    14    1
    27    13    15    1
    28    13    16    1
    29    15    45    1
    30    15    46    1
    31    15    47    1
    32    16    17   am
    33    16    48    1
    34    17    18    2
    35    17    19   am
    36    19    20    1
    37    19    49    1
    38    20    21    1
    39    20    33    1
    40    20    22    1
    41    22    23    1
    42    22    50    1
    43    22    51    1
    44    23    24    1
    45    23    52    1
    46    23    53    1
    47    24    25    1
    48    25    26    1
    49    25    27    1
    50    25    33    1
    51    27    32   ar
    52    27    28   ar
    53    28    29   ar
    54    28    54    1
    55    29    30   ar
    56    29    55    1
    57    30    31   ar
    58    30    56    1
    59    31    32   ar
    60    31    57    1
    61    32    58    1
    62    33    59    1
    63    33    60    1
    64    34    61    1
@<TRIPOS>SUBSTRUCTURE
     1 ZINC000462219577        1 TEMP              0 ****  ****    0 ROOT


##########                                Name:    ZINC000455156110
##########                DOCK_Rotatable_Bonds:                   4
##########                         Heavy_Atoms:                  27
##########                    Molecular_Weight:             370.424
##########                DOCK_Rotatable_Bonds:                   4
##########                       Formal_Charge:           0.0100002
##########                     HBond_Acceptors:                   6
##########                        HBond_Donors:                   1
##########                         Heavy_Atoms:                  27
##########                          Grid_Score:          -25.866869
##########                     Grid_vdw_energy:          -25.461958
##########                      Grid_es_energy:           -0.404911
##########           Internal_energy_repulsive:           16.579683

@<TRIPOS>MOLECULE
ZINC000455156110
 50 53 1 0 0
SMALL
USER_CHARGES


@<TRIPOS>ATOM
      1 C1         -8.1894    4.7560   50.9170 C.3     1  ZINC000455156110    0.0300
      2 O2         -7.7552    3.3949   50.9463 O.3     1  ZINC000455156110   -0.3100
      3 C3         -8.2289    2.6170   51.9567 C.ar    1  ZINC000455156110    0.0900
      4 C4         -9.0964    3.1531   52.8953 C.ar    1  ZINC000455156110   -0.1600
      5 C5         -9.5784    2.3637   53.9220 C.ar    1  ZINC000455156110   -0.0800
      6 C6        -10.5211    2.9479   54.9423 C.3     1  ZINC000455156110   -0.1100
      7 C7         -9.1947    1.0330   54.0138 C.ar    1  ZINC000455156110    0.1500
      8 N8         -9.6844    0.2326   55.0546 N.am    1  ZINC000455156110   -0.6700
      9 C9        -10.5709   -0.7478   54.7909 C.2     1  ZINC000455156110    0.7200
     10 O10       -10.9457   -0.9378   53.6499 O.2     1  ZINC000455156110   -0.5500
     11 N11       -11.0419   -1.5175   55.7920 N.am    1  ZINC000455156110   -0.5600
     12 C12       -10.6706   -1.3809   57.2041 C.3     1  ZINC000455156110    0.1000
     13 C13       -11.4650   -2.4725   57.9313 C.3     1  ZINC000455156110   -0.0200
     14 C14       -10.5145   -3.4509   58.6175 C.3     1  ZINC000455156110   -0.1400
     15 C15        -9.7651   -2.7223   59.7374 C.3     1  ZINC000455156110    0.0600
     16 O16       -10.7089   -2.1556   60.6487 O.3     1  ZINC000455156110   -0.3800
     17 C17       -11.5789   -1.1849   60.0629 C.3     1  ZINC000455156110    0.0600
     18 C18       -12.4072   -1.8469   58.9573 C.3     1  ZINC000455156110   -0.1400
     19 C19       -12.2509   -3.1701   56.8497 C.ar    1  ZINC000455156110   -0.1300
     20 C20       -13.1369   -4.2287   56.9054 C.ar    1  ZINC000455156110   -0.0700
     21 C21       -13.7394   -4.6929   55.7508 C.ar    1  ZINC000455156110   -0.1400
     22 C22       -13.4535   -4.0950   54.5374 C.ar    1  ZINC000455156110   -0.0900
     23 C23       -12.5694   -3.0388   54.4761 C.ar    1  ZINC000455156110   -0.1300
     24 C24       -11.9614   -2.5604   55.6376 C.ar    1  ZINC000455156110    0.1600
     25 C25        -8.3260    0.4947   53.0736 C.ar    1  ZINC000455156110   -0.1200
     26 C26        -7.8477    1.2837   52.0442 C.ar    1  ZINC000455156110    0.0900
     27 F27        -7.0028    0.7610   51.1287 F       1  ZINC000455156110   -0.1300
     28 H28        -7.7390    5.2628   50.0637 H       1  ZINC000455156110    0.1000
     29 H29        -9.2752    4.7890   50.8277 H       1  ZINC000455156110    0.0600
     30 H30        -7.8853    5.2542   51.8376 H       1  ZINC000455156110    0.0600
     31 H31        -9.3957    4.1884   52.8244 H       1  ZINC000455156110    0.1400
     32 H32       -11.5491    2.8173   54.6039 H       1  ZINC000455156110    0.0800
     33 H33       -10.3852    2.4384   55.8963 H       1  ZINC000455156110    0.0600
     34 H34       -10.3111    4.0104   55.0647 H       1  ZINC000455156110    0.0800
     35 H35        -9.3854    0.3842   55.9648 H       1  ZINC000455156110    0.4100
     36 H36        -9.6003   -1.5428   57.3317 H       1  ZINC000455156110    0.0800
     37 H37       -10.9525   -0.3959   57.5762 H       1  ZINC000455156110    0.0900
     38 H38       -11.0854   -4.2780   59.0395 H       1  ZINC000455156110    0.0800
     39 H39        -9.7992   -3.8346   57.8901 H       1  ZINC000455156110    0.0800
     40 H40        -9.1269   -3.4291   60.2676 H       1  ZINC000455156110    0.1000
     41 H41        -9.1523   -1.9293   59.3087 H       1  ZINC000455156110    0.0500
     42 H42       -12.2455   -0.7856   60.8272 H       1  ZINC000455156110    0.1000
     43 H43       -10.9861   -0.3749   59.6376 H       1  ZINC000455156110    0.0500
     44 H44       -13.0300   -1.0967   58.4700 H       1  ZINC000455156110    0.0800
     45 H45       -13.0400   -2.6214   59.3905 H       1  ZINC000455156110    0.0800
     46 H46       -13.3591   -4.6953   57.8536 H       1  ZINC000455156110    0.1300
     47 H47       -14.4313   -5.5207   55.7966 H       1  ZINC000455156110    0.1300
     48 H48       -13.9237   -4.4567   53.6349 H       1  ZINC000455156110    0.1300
     49 H49       -12.3498   -2.5764   53.5251 H       1  ZINC000455156110    0.1400
     50 H50        -8.0271   -0.5406   53.1444 H       1  ZINC000455156110    0.1700
@<TRIPOS>BOND
     1     1     2    1
     2     1    28    1
     3     1    29    1
     4     1    30    1
     5     2     3    1
     6     3    26   ar
     7     3     4   ar
     8     4     5   ar
     9     4    31    1
    10     5     6    1
    11     5     7   ar
    12     6    32    1
    13     6    33    1
    14     6    34    1
    15     7     8    1
    16     7    25   ar
    17     8     9   am
    18     8    35    1
    19     9    10    2
    20     9    11   am
    21    11    24    1
    22    11    12    1
    23    12    13    1
    24    12    36    1
    25    12    37    1
    26    13    18    1
    27    13    14    1
    28    13    19    1
    29    14    15    1
    30    14    38    1
    31    14    39    1
    32    15    16    1
    33    15    40    1
    34    15    41    1
    35    16    17    1
    36    17    18    1
    37    17    42    1
    38    17    43    1
    39    18    44    1
    40    18    45    1
    41    19    24   ar
    42    19    20   ar
    43    20    21   ar
    44    20    46    1
    45    21    22   ar
    46    21    47    1
    47    22    23   ar
    48    22    48    1
    49    23    24   ar
    50    23    49    1
    51    25    26   ar
    52    25    50    1
    53    26    27    1
@<TRIPOS>SUBSTRUCTURE
     1 ZINC000455156110        1 TEMP              0 ****  ****    0 ROOT


##########                                Name:    ZINC000793092912
##########                DOCK_Rotatable_Bonds:                   4
##########                         Heavy_Atoms:                  26
##########                    Molecular_Weight:               407.2
##########                DOCK_Rotatable_Bonds:                   4
##########                       Formal_Charge:         2.90573e-07
##########                     HBond_Acceptors:                  10
##########                        HBond_Donors:                   1
##########                         Heavy_Atoms:                  26
##########                          Grid_Score:          -25.773285
##########                     Grid_vdw_energy:          -25.706385
##########                      Grid_es_energy:           -0.066901
##########           Internal_energy_repulsive:           13.176385

@<TRIPOS>MOLECULE
ZINC000793092912
 40 43 1 0 0
SMALL
USER_CHARGES


@<TRIPOS>ATOM
      1 C1        -14.6055   -0.8594   53.7073 C.3     1  ZINC000793092912   -0.1300
      2 C2        -13.6029   -1.6383   54.5612 C.3     1  ZINC000793092912   -0.0800
      3 C3        -13.0521   -0.8848   55.7621 C.3     1  ZINC000793092912   -0.1100
      4 C4        -13.1682   -1.6803   57.0487 C.3     1  ZINC000793092912    0.1100
      5 N5        -12.8349   -3.0812   56.8542 N.am    1  ZINC000793092912   -0.5700
      6 C6        -11.8654   -3.6297   57.6129 C.2     1  ZINC000793092912    0.5100
      7 O7        -11.5696   -4.7978   57.4686 O.2     1  ZINC000793092912   -0.5100
      8 C8        -11.1550   -2.8000   58.6313 C.2     1  ZINC000793092912    0.5100
      9 O9        -10.1564   -2.1831   58.3221 O.2     1  ZINC000793092912   -0.4900
     10 N10       -11.6226   -2.7362   59.8937 N.am    1  ZINC000793092912   -0.6400
     11 C11       -10.9573   -1.9592   60.8474 C.ar    1  ZINC000793092912    0.1600
     12 C12        -9.5898   -2.1108   61.0355 C.ar    1  ZINC000793092912   -0.1200
     13 C13        -8.9311   -1.3438   61.9775 C.ar    1  ZINC000793092912   -0.0600
     14 C14        -9.6329   -0.4221   62.7374 C.ar    1  ZINC000793092912    0.0200
     15 O15        -9.2260    0.4406   63.7150 O.3     1  ZINC000793092912   -0.2800
     16 C16       -10.2840    1.4095   63.8373 C.3     1  ZINC000793092912    0.5700
     17 F17       -10.4179    1.8259   65.1661 F       1  ZINC000793092912   -0.1100
     18 F18       -10.0454    2.5059   63.0017 F       1  ZINC000793092912   -0.1500
     19 O19       -11.4569    0.6911   63.4117 O.3     1  ZINC000793092912   -0.2800
     20 C20       -11.0052   -0.2676   62.5512 C.ar    1  ZINC000793092912    0.0500
     21 C21       -11.6634   -1.0317   61.6031 C.ar    1  ZINC000793092912   -0.0900
     22 C22       -13.5107   -3.9134   55.8702 C.3     1  ZINC000793092912    0.1100
     23 C23       -13.7367   -3.1520   54.5724 C.3     1  ZINC000793092912   -0.1200
     24 H24       -14.5409   -3.5450   53.9504 H       1  ZINC000793092912    0.1400
     25 C25       -12.5853   -2.5137   53.8102 C.3     1  ZINC000793092912    0.0000
     26 Cl26      -12.6579   -2.5465   52.0090 Cl      1  ZINC000793092912   -0.0800
     27 Cl27      -10.9359   -2.6466   54.5264 Cl      1  ZINC000793092912   -0.0900
     28 H28       -15.6171   -1.0617   54.0594 H       1  ZINC000793092912    0.0800
     29 H29       -14.3994    0.2079   53.7879 H       1  ZINC000793092912    0.0700
     30 H30       -14.5143   -1.1695   52.6664 H       1  ZINC000793092912    0.0700
     31 H31       -12.0018   -0.6549   55.5830 H       1  ZINC000793092912    0.0900
     32 H32       -13.6016    0.0499   55.8745 H       1  ZINC000793092912    0.1000
     33 H33       -12.4925   -1.2549   57.7906 H       1  ZINC000793092912    0.1100
     34 H34       -14.1906   -1.6073   57.4195 H       1  ZINC000793092912    0.0800
     35 H35       -12.4206   -3.2293   60.1409 H       1  ZINC000793092912    0.4300
     36 H36        -9.0404   -2.8292   60.4451 H       1  ZINC000793092912    0.1500
     37 H37        -7.8675   -1.4633   62.1219 H       1  ZINC000793092912    0.1500
     38 H38       -12.7258   -0.9094   61.4534 H       1  ZINC000793092912    0.1600
     39 H39       -12.8921   -4.7844   55.6540 H       1  ZINC000793092912    0.1400
     40 H40       -14.4645   -4.2468   56.2792 H       1  ZINC000793092912    0.1000
@<TRIPOS>BOND
     1     1     2    1
     2     1    28    1
     3     1    29    1
     4     1    30    1
     5     2    23    1
     6     2    25    1
     7     2     3    1
     8     3     4    1
     9     3    31    1
    10     3    32    1
    11     4     5    1
    12     4    33    1
    13     4    34    1
    14     5     6   am
    15     5    22    1
    16     6     7    2
    17     6     8    1
    18     8     9    2
    19     8    10   am
    20    10    11    1
    21    10    35    1
    22    11    21   ar
    23    11    12   ar
    24    12    13   ar
    25    12    36    1
    26    13    14   ar
    27    13    37    1
    28    14    20   ar
    29    14    15    1
    30    15    16    1
    31    16    17    1
    32    16    18    1
    33    16    19    1
    34    19    20    1
    35    20    21   ar
    36    21    38    1
    37    22    23    1
    38    22    39    1
    39    22    40    1
    40    23    24    1
    41    23    25    1
    42    25    26    1
    43    25    27    1
@<TRIPOS>SUBSTRUCTURE
     1 ZINC000793092912        1 TEMP              0 ****  ****    0 ROOT


##########                                Name:    ZINC000883773972
##########                DOCK_Rotatable_Bonds:                   4
##########                         Heavy_Atoms:                  23
##########                    Molecular_Weight:             343.447
##########                DOCK_Rotatable_Bonds:                   4
##########                       Formal_Charge:                0.01
##########                     HBond_Acceptors:                   8
##########                        HBond_Donors:                   1
##########                         Heavy_Atoms:                  23
##########                          Grid_Score:          -25.596584
##########                     Grid_vdw_energy:          -24.657677
##########                      Grid_es_energy:           -0.938907
##########           Internal_energy_repulsive:            4.867046

@<TRIPOS>MOLECULE
ZINC000883773972
 48 50 1 0 0
SMALL
USER_CHARGES


@<TRIPOS>ATOM
      1 C1        -15.5371   -1.8136   47.2682 C.3     1  ZINC000883773972   -0.1700
      2 C2        -16.1903   -1.9112   48.6229 C.2     1  ZINC000883773972    0.5300
      3 O3        -17.3911   -2.0586   48.7079 O.2     1  ZINC000883773972   -0.5400
      4 N4        -15.4399   -1.8348   49.7399 N.am    1  ZINC000883773972   -0.6200
      5 C5        -13.9807   -1.6532   49.8088 C.3     1  ZINC000883773972    0.1100
      6 C6        -13.7023   -0.8657   51.1000 C.3     1  ZINC000883773972   -0.1100
      7 H7        -13.4862    0.1831   50.8970 H       1  ZINC000883773972    0.1000
      8 C8        -12.5615   -1.5457   51.8755 C.3     1  ZINC000883773972    0.1300
      9 N9        -13.0237   -1.6723   53.2674 N.am    1  ZINC000883773972   -0.6400
     10 C10       -12.2582   -1.6412   54.3763 C.2     1  ZINC000883773972    0.7300
     11 O11       -11.0546   -1.4977   54.2803 O.2     1  ZINC000883773972   -0.5800
     12 N12       -12.8268   -1.7693   55.5915 N.am    1  ZINC000883773972   -0.7400
     13 C13       -11.9946   -1.7373   56.7967 C.3     1  ZINC000883773972    0.1800
     14 H14       -11.1929   -1.0108   56.6635 H       1  ZINC000883773972    0.1100
     15 C15       -12.8510   -1.3327   57.9930 C.3     1  ZINC000883773972   -0.1500
     16 C16       -11.9751   -1.0467   59.2094 C.3     1  ZINC000883773972   -0.1000
     17 C17       -11.3664   -2.3493   59.7335 C.3     1  ZINC000883773972   -0.5600
     18 H18       -12.1621   -3.0601   59.9563 H       1  ZINC000883773972    0.1400
     19 C19       -10.5636   -2.0643   61.0044 C.3     1  ZINC000883773972   -0.1400
     20 S20       -10.2700   -3.0433   58.4619 S.o2    1  ZINC000883773972    2.4200
     21 O21        -9.2426   -2.1017   58.1841 O.2     1  ZINC000883773972   -0.9200
     22 O22        -9.9167   -4.3669   58.8392 O.2     1  ZINC000883773972   -0.9300
     23 C23       -11.3901   -3.1230   57.0336 C.3     1  ZINC000883773972   -0.6300
     24 C24       -14.4853   -1.8395   53.2117 C.3     1  ZINC000883773972    0.1100
     25 C25       -14.9742   -1.0380   51.9662 C.3     1  ZINC000883773972   -0.1100
     26 H26       -15.4304   -0.0890   52.2479 H       1  ZINC000883773972    0.1000
     27 C27       -15.9203   -1.9102   51.1293 C.3     1  ZINC000883773972    0.1100
     28 H28       -16.2974   -1.8958   46.4915 H       1  ZINC000883773972    0.0900
     29 H29       -15.0284   -0.8537   47.1785 H       1  ZINC000883773972    0.0900
     30 H30       -14.8131   -2.6205   47.1549 H       1  ZINC000883773972    0.0900
     31 H31       -13.4844   -2.6229   49.8475 H       1  ZINC000883773972    0.0800
     32 H32       -13.6326   -1.0885   48.9438 H       1  ZINC000883773972    0.0900
     33 H33       -12.3604   -2.5318   51.4568 H       1  ZINC000883773972    0.0700
     34 H34       -11.6625   -0.9308   51.8342 H       1  ZINC000883773972    0.0900
     35 H35       -13.7871   -1.8826   55.6681 H       1  ZINC000883773972    0.4000
     36 H36       -13.4196   -0.4374   57.7414 H       1  ZINC000883773972    0.0900
     37 H37       -13.5420   -2.1416   58.2301 H       1  ZINC000883773972    0.0800
     38 H38       -11.1758   -0.3618   58.9266 H       1  ZINC000883773972    0.0900
     39 H39       -12.5810   -0.5899   59.9920 H       1  ZINC000883773972    0.0900
     40 H40       -11.2222   -1.6410   61.7628 H       1  ZINC000883773972    0.0800
     41 H41       -10.1306   -2.9929   61.3765 H       1  ZINC000883773972    0.0700
     42 H42        -9.7662   -1.3562   60.7792 H       1  ZINC000883773972    0.0800
     43 H43       -12.1856   -3.8410   57.2335 H       1  ZINC000883773972    0.1400
     44 H44       -10.8324   -3.4316   56.1494 H       1  ZINC000883773972    0.1400
     45 H45       -14.7374   -2.8948   53.1080 H       1  ZINC000883773972    0.0800
     46 H46       -14.9431   -1.4317   54.1129 H       1  ZINC000883773972    0.0800
     47 H47       -16.9421   -1.5399   51.2124 H       1  ZINC000883773972    0.0900
     48 H48       -15.8689   -2.9461   51.4646 H       1  ZINC000883773972    0.0700
@<TRIPOS>BOND
     1     1     2    1
     2     1    28    1
     3     1    29    1
     4     1    30    1
     5     2     3    2
     6     2     4   am
     7     4    27    1
     8     4     5    1
     9     5     6    1
    10     5    31    1
    11     5    32    1
    12     6     7    1
    13     6    25    1
    14     6     8    1
    15     8     9    1
    16     8    33    1
    17     8    34    1
    18     9    10   am
    19     9    24    1
    20    10    11    2
    21    10    12   am
    22    12    13    1
    23    12    35    1
    24    13    14    1
    25    13    23    1
    26    13    15    1
    27    15    16    1
    28    15    36    1
    29    15    37    1
    30    16    17    1
    31    16    38    1
    32    16    39    1
    33    17    18    1
    34    17    19    1
    35    17    20    1
    36    19    40    1
    37    19    41    1
    38    19    42    1
    39    20    21    2
    40    20    22    2
    41    20    23    1
    42    23    43    1
    43    23    44    1
    44    24    25    1
    45    24    45    1
    46    24    46    1
    47    25    26    1
    48    25    27    1
    49    27    47    1
    50    27    48    1
@<TRIPOS>SUBSTRUCTURE
     1 ZINC000883773972        1 TEMP              0 ****  ****    0 ROOT


##########                                Name:    ZINC000820901229
##########                DOCK_Rotatable_Bonds:                   3
##########                         Heavy_Atoms:                  18
##########                    Molecular_Weight:             331.233
##########                DOCK_Rotatable_Bonds:                   3
##########                       Formal_Charge:           0.0099999
##########                     HBond_Acceptors:                   5
##########                        HBond_Donors:                   1
##########                         Heavy_Atoms:                  18
##########                          Grid_Score:          -24.385725
##########                     Grid_vdw_energy:          -23.612219
##########                      Grid_es_energy:           -0.773506
##########           Internal_energy_repulsive:            2.802117

@<TRIPOS>MOLECULE
ZINC000820901229
 33 35 1 0 0
SMALL
USER_CHARGES


@<TRIPOS>ATOM
      1 O1        -10.1985   -2.6253   61.1594 O.2     1  ZINC000820901229   -0.5300
      2 C2        -10.6902   -1.5354   60.9360 C.2     1  ZINC000820901229    0.6000
      3 N3        -11.5569   -1.3837   59.9151 N.am    1  ZINC000820901229   -0.7100
      4 C4        -11.9021   -2.5300   59.0707 C.3     1  ZINC000820901229    0.1600
      5 H5        -11.6885   -3.4583   59.6006 H       1  ZINC000820901229    0.1000
      6 C6        -11.0966   -2.4773   57.7625 C.3     1  ZINC000820901229   -0.1300
      7 C7        -11.4749   -3.6215   56.8268 C.3     1  ZINC000820901229   -0.1100
      8 C8        -12.9883   -3.6480   56.5561 C.3     1  ZINC000820901229   -0.1100
      9 C9        -13.6847   -3.7673   57.8960 C.3     1  ZINC000820901229    0.0800
     10 H10       -13.2996   -4.6336   58.4340 H       1  ZINC000820901229    0.0700
     11 O11       -15.1075   -3.7945   57.8998 O.3     1  ZINC000820901229   -0.3700
     12 C12       -15.4912   -3.4751   59.2616 C.3     1  ZINC000820901229    0.0500
     13 C13       -14.3512   -2.6153   59.8664 C.3     1  ZINC000820901229   -0.1500
     14 C14       -13.3735   -2.4738   58.6993 C.3     1  ZINC000820901229   -0.1400
     15 H15       -13.5953   -1.5818   58.1136 H       1  ZINC000820901229    0.0900
     16 C16       -10.3433   -0.3831   61.7847 C.2     1  ZINC000820901229    0.0100
     17 C17        -9.3662   -0.4204   62.7179 C.2     1  ZINC000820901229   -0.2200
     18 S18        -9.2751    1.1051   63.4836 S.3     1  ZINC000820901229    0.3100
     19 C19       -10.5464    1.7056   62.5143 C.2     1  ZINC000820901229   -0.0100
     20 Br20      -11.2419    3.4611   62.6164 Br      1  ZINC000820901229    0.0700
     21 N21       -10.9612    0.7986   61.7001 N.2     1  ZINC000820901229   -0.4100
     22 H22       -11.9522   -0.5155   59.7395 H       1  ZINC000820901229    0.4100
     23 H23       -11.2916   -1.5287   57.2622 H       1  ZINC000820901229    0.0700
     24 H24       -10.0340   -2.5440   57.9955 H       1  ZINC000820901229    0.0700
     25 H25       -10.9458   -3.4990   55.8817 H       1  ZINC000820901229    0.0800
     26 H26       -11.1773   -4.5666   57.2808 H       1  ZINC000820901229    0.0700
     27 H27       -13.2925   -2.7257   56.0611 H       1  ZINC000820901229    0.0700
     28 H28       -13.2381   -4.5052   55.9310 H       1  ZINC000820901229    0.0800
     29 H29       -16.4229   -2.9094   59.2617 H       1  ZINC000820901229    0.0900
     30 H30       -15.6106   -4.3922   59.8384 H       1  ZINC000820901229    0.0600
     31 H31       -14.7261   -1.6385   60.1722 H       1  ZINC000820901229    0.0800
     32 H32       -13.8845   -3.1301   60.7063 H       1  ZINC000820901229    0.0800
     33 H33        -8.7451   -1.2747   62.9434 H       1  ZINC000820901229    0.2000
@<TRIPOS>BOND
     1     1     2    2
     2     2     3   am
     3     2    16    1
     4     3     4    1
     5     3    22    1
     6     4     5    1
     7     4    14    1
     8     4     6    1
     9     6     7    1
    10     6    23    1
    11     6    24    1
    12     7     8    1
    13     7    25    1
    14     7    26    1
    15     8     9    1
    16     8    27    1
    17     8    28    1
    18     9    10    1
    19     9    14    1
    20     9    11    1
    21    11    12    1
    22    12    13    1
    23    12    29    1
    24    12    30    1
    25    13    14    1
    26    13    31    1
    27    13    32    1
    28    14    15    1
    29    16    21    1
    30    16    17    2
    31    17    18    1
    32    17    33    1
    33    18    19    1
    34    19    20    1
    35    19    21    2
@<TRIPOS>SUBSTRUCTURE
     1 ZINC000820901229        1 TEMP              0 ****  ****    0 ROOT


##########                                Name:    ZINC000569288350
##########                DOCK_Rotatable_Bonds:                   3
##########                         Heavy_Atoms:                  19
##########                    Molecular_Weight:             393.559
##########                DOCK_Rotatable_Bonds:                   3
##########                       Formal_Charge:           0.0299999
##########                     HBond_Acceptors:                   5
##########                        HBond_Donors:                   1
##########                         Heavy_Atoms:                  19
##########                          Grid_Score:          -21.937368
##########                     Grid_vdw_energy:          -21.384014
##########                      Grid_es_energy:           -0.553353
##########           Internal_energy_repulsive:            5.887748

@<TRIPOS>MOLECULE
ZINC000569288350
 26 27 1 0 0
SMALL
USER_CHARGES


@<TRIPOS>ATOM
      1 O1        -12.1826   -0.4988   56.4686 O.2     1  ZINC000569288350   -0.4800
      2 C2        -11.1375   -1.1000   56.3114 C.2     1  ZINC000569288350    0.5700
      3 N3        -10.6056   -1.2159   55.0784 N.am    1  ZINC000569288350   -0.6600
      4 C4        -11.2589   -0.6491   53.9787 C.ar    1  ZINC000569288350    0.1800
      5 C5        -11.4352    0.7262   53.9073 C.ar    1  ZINC000569288350   -0.1200
      6 C6        -12.0805    1.2843   52.8206 C.ar    1  ZINC000569288350   -0.0600
      7 C7        -12.5519    0.4755   51.8036 C.ar    1  ZINC000569288350   -0.1500
      8 C8        -12.3787   -0.8972   51.8698 C.ar    1  ZINC000569288350    0.1300
      9 F9        -12.8400   -1.6851   50.8741 F       1  ZINC000569288350   -0.1200
     10 C10       -11.7275   -1.4612   52.9531 C.ar    1  ZINC000569288350   -0.1000
     11 Cl11      -11.5091   -3.1813   53.0371 Cl      1  ZINC000569288350   -0.0400
     12 C12       -10.4483   -1.6980   57.4718 C.ar    1  ZINC000569288350   -0.1400
     13 C13        -9.5728   -0.9270   58.2432 C.ar    1  ZINC000569288350    0.1400
     14 F14        -9.3550    0.3689   57.9295 F       1  ZINC000569288350   -0.1200
     15 C15        -8.9312   -1.4954   59.3286 C.ar    1  ZINC000569288350   -0.1300
     16 C16        -9.1537   -2.8212   59.6502 C.ar    1  ZINC000569288350   -0.0600
     17 C17       -10.0186   -3.5896   58.8902 C.ar    1  ZINC000569288350   -0.0900
     18 C18       -10.6713   -3.0357   57.8087 C.ar    1  ZINC000569288350   -0.0500
     19 I19       -11.9795   -4.2028   56.6615 I       1  ZINC000569288350    0.0000
     20 H20        -9.7699   -1.6921   54.9536 H       1  ZINC000569288350    0.4200
     21 H21       -11.0682    1.3598   54.7013 H       1  ZINC000569288350    0.1600
     22 H22       -12.2173    2.3542   52.7658 H       1  ZINC000569288350    0.1500
     23 H23       -13.0567    0.9147   50.9558 H       1  ZINC000569288350    0.1500
     24 H24        -8.2548   -0.9021   59.9260 H       1  ZINC000569288350    0.1500
     25 H25        -8.6498   -3.2599   60.4987 H       1  ZINC000569288350    0.1500
     26 H26       -10.1868   -4.6249   59.1480 H       1  ZINC000569288350    0.1500
@<TRIPOS>BOND
     1     1     2    2
     2     2     3   am
     3     2    12    1
     4     3     4    1
     5     3    20    1
     6     4    10   ar
     7     4     5   ar
     8     5     6   ar
     9     5    21    1
    10     6     7   ar
    11     6    22    1
    12     7     8   ar
    13     7    23    1
    14     8     9    1
    15     8    10   ar
    16    10    11    1
    17    12    18   ar
    18    12    13   ar
    19    13    14    1
    20    13    15   ar
    21    15    16   ar
    22    15    24    1
    23    16    17   ar
    24    16    25    1
    25    17    18   ar
    26    17    26    1
    27    18    19    1
@<TRIPOS>SUBSTRUCTURE
     1 ZINC000569288350        1 TEMP              0 ****  ****    0 ROOT


##########                                Name:    ZINC000426567005
##########                DOCK_Rotatable_Bonds:                   9
##########                         Heavy_Atoms:                  31
##########                    Molecular_Weight:             417.467
##########                DOCK_Rotatable_Bonds:                   9
##########                       Formal_Charge:        -2.23517e-07
##########                     HBond_Acceptors:                   8
##########                        HBond_Donors:                   4
##########                         Heavy_Atoms:                  31
##########                          Grid_Score:          -17.862888
##########                     Grid_vdw_energy:          -17.840843
##########                      Grid_es_energy:           -0.022045
##########           Internal_energy_repulsive:           15.693279

@<TRIPOS>MOLECULE
ZINC000426567005
 54 57 1 0 0
SMALL
USER_CHARGES


@<TRIPOS>ATOM
      1 O1        -15.7882   -0.8694   49.2195 O.2     1  ZINC000426567005   -0.4900
      2 C2        -15.2625    0.1357   49.6517 C.2     1  ZINC000426567005    0.5200
      3 N3        -15.3446    1.2897   48.9603 N.am    1  ZINC000426567005   -0.6000
      4 C4        -16.0308    1.3277   47.7414 C.2     1  ZINC000426567005    0.3000
      5 N5        -16.5083    0.2913   47.0924 N.2     1  ZINC000426567005   -0.3100
      6 N6        -17.1223    0.7542   45.9217 N.pl3   1  ZINC000426567005   -0.4600
      7 C7        -16.9991    2.0981   45.8878 C.2     1  ZINC000426567005    0.1100
      8 C8        -17.5167    3.0093   44.8048 C.3     1  ZINC000426567005   -0.0300
      9 C9        -16.5479    4.1980   44.5876 C.3     1  ZINC000426567005   -0.1200
     10 C10       -16.8680    4.6392   43.1378 C.3     1  ZINC000426567005   -0.1300
     11 C11       -17.1181    3.3156   42.3860 C.3     1  ZINC000426567005   -0.1300
     12 C12       -17.5306    2.2792   43.4459 C.3     1  ZINC000426567005   -0.1200
     13 C13       -16.3348    2.4821   47.0011 C.2     1  ZINC000426567005   -0.2600
     14 C14       -14.5304    0.0952   50.9517 C.2     1  ZINC000426567005    0.5200
     15 O15       -13.6706    0.9181   51.1900 O.2     1  ZINC000426567005   -0.4900
     16 N16       -14.8241   -0.8552   51.8611 N.am    1  ZINC000426567005   -0.6400
     17 C17       -14.1410   -0.8930   53.0742 C.ar    1  ZINC000426567005    0.1700
     18 C18       -14.2859    0.1489   53.9855 C.ar    1  ZINC000426567005   -0.1300
     19 C19       -13.6122    0.1145   55.1855 C.ar    1  ZINC000426567005   -0.0300
     20 C20       -12.7823   -0.9685   55.4884 C.ar    1  ZINC000426567005   -0.1500
     21 C21       -12.0589   -1.0088   56.7741 C.2     1  ZINC000426567005    0.5600
     22 O22       -11.7777    0.0266   57.3462 O.2     1  ZINC000426567005   -0.5100
     23 N23       -11.7100   -2.1933   57.3142 N.am    1  ZINC000426567005   -0.6700
     24 C24       -11.0245   -2.2316   58.5325 C.ar    1  ZINC000426567005    0.1400
     25 C25       -11.6685   -1.8590   59.7053 C.ar    1  ZINC000426567005   -0.1500
     26 C26       -10.9888   -1.8984   60.9071 C.ar    1  ZINC000426567005   -0.1000
     27 C27        -9.6686   -2.3082   60.9433 C.ar    1  ZINC000426567005   -0.1300
     28 C28        -9.0244   -2.6793   59.7773 C.ar    1  ZINC000426567005   -0.1000
     29 C29        -9.7000   -2.6477   58.5732 C.ar    1  ZINC000426567005   -0.1200
     30 C30       -12.6392   -2.0135   54.5714 C.ar    1  ZINC000426567005   -0.0600
     31 C31       -13.3195   -1.9754   53.3752 C.ar    1  ZINC000426567005   -0.1400
     32 H32       -14.9280    2.0940   49.3076 H       1  ZINC000426567005    0.4300
     33 H33       -17.5597    0.2051   45.2522 H       1  ZINC000426567005    0.4400
     34 H34       -18.5149    3.3688   45.0549 H       1  ZINC000426567005    0.1100
     35 H35       -16.7595    5.0026   45.2919 H       1  ZINC000426567005    0.0800
     36 H36       -15.5113    3.8719   44.6721 H       1  ZINC000426567005    0.0700
     37 H37       -17.7608    5.2640   43.1175 H       1  ZINC000426567005    0.0700
     38 H38       -16.0201    5.1698   42.7045 H       1  ZINC000426567005    0.0700
     39 H39       -17.9195    3.4450   41.6586 H       1  ZINC000426567005    0.0700
     40 H40       -16.2059    2.9933   41.8838 H       1  ZINC000426567005    0.0700
     41 H41       -16.8186    1.4540   43.4582 H       1  ZINC000426567005    0.0600
     42 H42       -18.5322    1.9056   43.2329 H       1  ZINC000426567005    0.0700
     43 H43       -16.0773    3.4959   47.2700 H       1  ZINC000426567005    0.1700
     44 H44       -15.5111   -1.5130   51.6707 H       1  ZINC000426567005    0.4300
     45 H45       -14.9274    0.9855   53.7509 H       1  ZINC000426567005    0.1500
     46 H46       -13.7244    0.9237   55.8919 H       1  ZINC000426567005    0.1400
     47 H47       -11.9343   -3.0193   56.8577 H       1  ZINC000426567005    0.4100
     48 H48       -12.6995   -1.5385   59.6777 H       1  ZINC000426567005    0.1300
     49 H49       -11.4889   -1.6084   61.8193 H       1  ZINC000426567005    0.1300
     50 H50        -9.1393   -2.3381   61.8843 H       1  ZINC000426567005    0.1200
     51 H51        -7.9930   -2.9983   59.8089 H       1  ZINC000426567005    0.1300
     52 H52        -9.1965   -2.9381   57.6629 H       1  ZINC000426567005    0.1300
     53 H53       -11.9984   -2.8516   54.8024 H       1  ZINC000426567005    0.1300
     54 H54       -13.2094   -2.7826   52.6661 H       1  ZINC000426567005    0.1400
@<TRIPOS>BOND
     1     1     2    2
     2     2     3   am
     3     2    14    1
     4     3     4    1
     5     3    32    1
     6     4    13    1
     7     4     5    2
     8     5     6    1
     9     6     7    1
    10     6    33    1
    11     7     8    1
    12     7    13    2
    13     8    12    1
    14     8     9    1
    15     8    34    1
    16     9    10    1
    17     9    35    1
    18     9    36    1
    19    10    11    1
    20    10    37    1
    21    10    38    1
    22    11    12    1
    23    11    39    1
    24    11    40    1
    25    12    41    1
    26    12    42    1
    27    13    43    1
    28    14    15    2
    29    14    16   am
    30    16    17    1
    31    16    44    1
    32    17    31   ar
    33    17    18   ar
    34    18    19   ar
    35    18    45    1
    36    19    20   ar
    37    19    46    1
    38    20    21    1
    39    20    30   ar
    40    21    22    2
    41    21    23   am
    42    23    24    1
    43    23    47    1
    44    24    29   ar
    45    24    25   ar
    46    25    26   ar
    47    25    48    1
    48    26    27   ar
    49    26    49    1
    50    27    28   ar
    51    27    50    1
    52    28    29   ar
    53    28    51    1
    54    29    52    1
    55    30    31   ar
    56    30    53    1
    57    31    54    1
@<TRIPOS>SUBSTRUCTURE
     1 ZINC000426567005        1 TEMP              0 ****  ****    0 ROOT

