
##########                                Name:     oleObject80.pdb
##########                DOCK_Rotatable_Bonds:                  14
##########                         Heavy_Atoms:                  51
##########                    Molecular_Weight:             703.283
##########                DOCK_Rotatable_Bonds:                  14
##########                       Formal_Charge:         0.000299793
##########                     HBond_Acceptors:                  10
##########                        HBond_Donors:                   3
##########                         Heavy_Atoms:                  51
##########                          Grid_Score:          -47.863415
##########                     Grid_vdw_energy:          -48.059338
##########                      Grid_es_energy:            0.195924
##########           Internal_energy_repulsive:           53.848980

@<TRIPOS>MOLECULE
oleObject80.pdb
 94 99 1 0 0
SMALL
NO_CHARGES


@<TRIPOS>ATOM
      1 C          -8.8011   -1.4821   62.2355 C.ar    1  UNL        -0.0620
      2 C          -8.9460   -2.0343   60.9550 C.ar    1  UNL        -0.0590
      3 C          -9.9964   -1.6269   60.1097 C.ar    1  UNL        -0.0456
      4 C         -10.9198   -0.6480   60.5573 C.ar    1  UNL        -0.0185
      5 C         -10.7586   -0.1001   61.8495 C.ar    1  UNL        -0.0565
      6 C          -9.7081   -0.5130   62.6821 C.ar    1  UNL        -0.0619
      7 C         -12.0825   -0.1898   59.6588 C.3     1  UNL         0.0931
      8 C         -11.6993    0.9203   58.6641 C.ar    1  UNL         0.0683
      9 C         -12.6817    1.7355   58.0469 C.ar    1  UNL        -0.0272
     10 C         -12.2585    2.7275   57.1424 C.ar    1  UNL        -0.0559
     11 C         -10.8884    2.8801   56.8863 C.ar    1  UNL        -0.0435
     12 C          -9.9837    2.0366   57.5471 C.ar    1  UNL         0.0272
     13 N         -10.3785    1.0853   58.4136 N.ar    1  UNL        -0.2587
     14 C         -14.1708    1.5735   58.3320 C.3     1  UNL        -0.0379
     15 N         -12.8458   -1.3088   59.0345 N.am    1  UNL        -0.2918
     16 C         -12.8711   -1.4623   57.6436 C.2     1  UNL         0.2180
     17 O         -12.0752   -0.8655   56.9369 O.2     1  UNL        -0.2772
     18 C         -13.6881   -2.6514   57.0788 C.3     1  UNL         0.0385
     19 C         -12.8031   -3.8979   56.8312 C.3     1  UNL        -0.0289
     20 C         -11.8892   -3.7192   55.6016 C.3     1  UNL        -0.0010
     21 N         -12.6697   -3.4225   54.3812 N.4     1  UNL        -0.3010
     22 C         -13.5388   -2.2296   54.5228 C.3     1  UNL        -0.0010
     23 C         -14.4508   -2.2991   55.7740 C.3     1  UNL        -0.0289
     24 C         -11.8073   -3.4046   53.1788 C.3     1  UNL         0.0222
     25 C         -11.6596   -2.0044   52.5486 C.3     1  UNL         0.0661
     26 O         -10.5855   -1.3292   53.2271 O.3     1  UNL        -0.3432
     27 C          -9.5195   -0.7412   52.5737 C.ar    1  UNL         0.0937
     28 C          -8.5743   -1.4972   51.8511 C.ar    1  UNL        -0.0284
     29 C          -7.5044   -0.8585   51.2029 C.ar    1  UNL        -0.0381
     30 C          -7.3666    0.5394   51.2512 C.ar    1  UNL         0.0319
     31 C          -8.2993    1.2911   51.9918 C.ar    1  UNL        -0.0194
     32 C          -9.3704    0.6574   52.6432 C.ar    1  UNL         0.0727
     33 CL        -10.5074    1.6382   53.5493 Cl      1  UNL        -0.0814
     34 N          -6.2801    1.1293   50.6080 N.pl3   1  UNL        -0.3136
     35 C          -5.1220    1.7270   51.1044 C.ar    1  UNL         0.0489
     36 C          -3.8743    1.3867   50.5527 C.ar    1  UNL         0.0488
     37 N          -2.7115    1.9319   50.9622 N.ar    1  UNL        -0.2543
     38 C          -2.7097    2.8659   51.9387 C.ar    1  UNL         0.0703
     39 C          -3.9300    3.2777   52.5346 C.ar    1  UNL        -0.0339
     40 C          -5.1422    2.7091   52.1116 C.ar    1  UNL        -0.0371
     41 C          -1.3733    3.4327   52.3379 C.ar    1  UNL         0.0009
     42 C          -0.2960    3.5178   51.4176 C.ar    1  UNL        -0.0402
     43 C           0.9608    4.0462   51.7795 C.ar    1  UNL         0.0375
     44 C           1.1498    4.5028   53.1004 C.ar    1  UNL        -0.0496
     45 C           0.1052    4.4261   54.0320 C.ar    1  UNL        -0.0608
     46 C          -1.1381    3.8970   53.6575 C.ar    1  UNL        -0.0528
     47 C           2.0639    4.1057   50.7505 C.2     1  UNL         0.2403
     48 O           1.8728    4.4852   49.6090 O.2     1  UNL        -0.2722
     49 N           3.3246    3.7110   51.1454 N.am    1  UNL        -0.3251
     50 C         -13.4925   -2.2790   59.9464 C.3     1  UNL         0.0037
     51 C         -10.1017   -2.2597   58.7251 C.3     1  UNL        -0.0394
     52 H          -7.9866   -1.8034   62.8785 H       1  UNL         0.0623
     53 H          -8.2352   -2.7839   60.6187 H       1  UNL         0.0626
     54 H         -11.4422    0.6582   62.2177 H       1  UNL         0.0627
     55 H          -9.5976   -0.0801   63.6723 H       1  UNL         0.0623
     56 H         -12.7810    0.2943   60.3462 H       1  UNL         0.0626
     57 H         -12.9792    3.3707   56.6454 H       1  UNL         0.0627
     58 H         -10.5345    3.6371   56.1927 H       1  UNL         0.0639
     59 H          -8.9112    2.1241   57.3783 H       1  UNL         0.0840
     60 H         -14.5433    0.6173   57.9438 H       1  UNL         0.0280
     61 H         -14.7613    2.3707   57.8635 H       1  UNL         0.0280
     62 H         -14.3755    1.6073   59.4092 H       1  UNL         0.0280
     63 H         -14.4505   -2.9115   57.8222 H       1  UNL         0.0402
     64 H         -13.4493   -4.7696   56.6658 H       1  UNL         0.0288
     65 H         -12.1940   -4.1265   57.7123 H       1  UNL         0.0288
     66 H         -11.3116   -4.6418   55.4604 H       1  UNL         0.0431
     67 H         -11.1758   -2.9069   55.7967 H       1  UNL         0.0431
     68 H         -14.1858   -2.1225   53.6444 H       1  UNL         0.0431
     69 H         -12.9141   -1.3294   54.5768 H       1  UNL         0.0431
     70 H         -15.2134   -3.0689   55.5981 H       1  UNL         0.0288
     71 H         -14.9895   -1.3508   55.8961 H       1  UNL         0.0288
     72 H         -12.2371   -4.0688   52.4176 H       1  UNL         0.0455
     73 H         -10.8106   -3.7913   53.4285 H       1  UNL         0.0455
     74 H         -12.5912   -1.4372   52.6643 H       1  UNL         0.0586
     75 H         -11.4294   -2.1073   51.4805 H       1  UNL         0.0586
     76 H          -8.6556   -2.5773   51.7858 H       1  UNL         0.0652
     77 H          -6.7829   -1.4543   50.6507 H       1  UNL         0.0644
     78 H          -8.1886    2.3668   52.0846 H       1  UNL         0.0659
     79 H          -6.3468    1.1316   49.5982 H       1  UNL         0.1528
     80 H          -3.8010    0.6434   49.7599 H       1  UNL         0.0861
     81 H          -3.9472    4.0220   53.3231 H       1  UNL         0.0646
     82 H          -6.0765    3.0447   52.5506 H       1  UNL         0.0644
     83 H          -0.4286    3.1513   50.4057 H       1  UNL         0.0638
     84 H           2.1012    4.9169   53.4192 H       1  UNL         0.0631
     85 H           0.2583    4.7790   55.0480 H       1  UNL         0.0623
     86 H          -1.9289    3.8576   54.4012 H       1  UNL         0.0630
     87 H           4.0922    3.7352   50.4877 H       1  UNL         0.1458
     88 H           3.4657    3.4006   52.0984 H       1  UNL         0.1458
     89 H         -13.4400   -1.9542   60.9909 H       1  UNL         0.0433
     90 H         -12.9956   -3.2535   59.8752 H       1  UNL         0.0433
     91 H         -14.5483   -2.3926   59.6710 H       1  UNL         0.0433
     92 H          -9.2810   -2.9629   58.5364 H       1  UNL         0.0280
     93 H         -10.0621   -1.4988   57.9362 H       1  UNL         0.0280
     94 H         -11.0392   -2.8182   58.6138 H       1  UNL         0.0280
@<TRIPOS>BOND
     1     1     2   ar
     2     1     6   ar
     3     1    52    1
     4     2     3   ar
     5     2    53    1
     6     3     4   ar
     7     3    51    1
     8     4     5   ar
     9     4     7    1
    10     5     6   ar
    11     5    54    1
    12     6    55    1
    13     7     8    1
    14     7    15    1
    15     7    56    1
    16     8     9   ar
    17     8    13   ar
    18     9    10   ar
    19     9    14    1
    20    10    11   ar
    21    10    57    1
    22    11    12   ar
    23    11    58    1
    24    12    13   ar
    25    12    59    1
    26    14    60    1
    27    14    61    1
    28    14    62    1
    29    15    16   am
    30    15    50    1
    31    16    17    2
    32    16    18    1
    33    18    19    1
    34    18    23    1
    35    18    63    1
    36    19    20    1
    37    19    64    1
    38    19    65    1
    39    20    21    1
    40    20    66    1
    41    20    67    1
    42    21    22    1
    43    21    24    1
    44    22    23    1
    45    22    68    1
    46    22    69    1
    47    23    70    1
    48    23    71    1
    49    24    25    1
    50    24    72    1
    51    24    73    1
    52    25    26    1
    53    25    74    1
    54    25    75    1
    55    26    27    1
    56    27    28   ar
    57    27    32   ar
    58    28    29   ar
    59    28    76    1
    60    29    30   ar
    61    29    77    1
    62    30    31   ar
    63    30    34    1
    64    31    32   ar
    65    31    78    1
    66    32    33    1
    67    34    35    1
    68    34    79    1
    69    35    36   ar
    70    35    40   ar
    71    36    37   ar
    72    36    80    1
    73    37    38   ar
    74    38    39   ar
    75    38    41    1
    76    39    40   ar
    77    39    81    1
    78    40    82    1
    79    41    42   ar
    80    41    46   ar
    81    42    43   ar
    82    42    83    1
    83    43    44   ar
    84    43    47    1
    85    44    45   ar
    86    44    84    1
    87    45    46   ar
    88    45    85    1
    89    46    86    1
    90    47    48    2
    91    47    49   am
    92    49    87    1
    93    49    88    1
    94    50    89    1
    95    50    90    1
    96    50    91    1
    97    51    92    1
    98    51    93    1
    99    51    94    1
@<TRIPOS>SUBSTRUCTURE
     1 UNL         1 TEMP              0 ****  ****    0 ROOT


##########                                Name:    ZINC000770814339
##########                DOCK_Rotatable_Bonds:                  13
##########                         Heavy_Atoms:                  28
##########                    Molecular_Weight:             409.423
##########                DOCK_Rotatable_Bonds:                  13
##########                       Formal_Charge:          -0.0100008
##########                     HBond_Acceptors:                  12
##########                        HBond_Donors:                   4
##########                         Heavy_Atoms:                  28
##########                          Grid_Score:          -43.483040
##########                     Grid_vdw_energy:          -40.893070
##########                      Grid_es_energy:           -2.589968
##########           Internal_energy_repulsive:           13.815630

@<TRIPOS>MOLECULE
ZINC000770814339
 47 48 1 0 0
SMALL
USER_CHARGES


@<TRIPOS>ATOM
      1 C1         -5.1141    1.4104   65.0637 C.3     1  ZINC000770814339   -0.1500
      2 C2         -5.9318    1.6111   66.3412 C.3     1  ZINC000770814339    0.0600
      3 O3         -6.5481    0.3533   66.7239 O.3     1  ZINC000770814339   -0.3500
      4 C4         -7.7448    0.0722   66.1850 C.2     1  ZINC000770814339    0.4700
      5 O5         -8.2084   -1.0386   66.2891 O.2     1  ZINC000770814339   -0.4800
      6 C6         -8.5101    1.1422   65.4497 C.3     1  ZINC000770814339    0.0700
      7 O7         -9.5701    0.5416   64.7027 O.3     1  ZINC000770814339   -0.1800
      8 N8         -9.1295   -0.2956   63.6491 N.2     1  ZINC000770814339   -0.2800
      9 C9         -9.8484   -0.4162   62.5689 C.2     1  ZINC000770814339    0.1800
     10 C10        -9.3883   -1.2938   61.4668 C.2     1  ZINC000770814339    0.5900
     11 O11        -9.0273   -2.4293   61.7047 O.2     1  ZINC000770814339   -0.5100
     12 N12        -9.3703   -0.8322   60.2006 N.am    1  ZINC000770814339   -0.7000
     13 C13        -8.9171   -1.7003   59.1110 C.3     1  ZINC000770814339    0.1500
     14 C14       -10.0774   -2.5177   58.6042 C.ar    1  ZINC000770814339   -0.0600
     15 C15       -11.2181   -1.8873   58.1436 C.ar    1  ZINC000770814339   -0.1200
     16 C16       -12.2823   -2.6372   57.6788 C.ar    1  ZINC000770814339   -0.0200
     17 C17       -12.2056   -4.0174   57.6741 C.ar    1  ZINC000770814339   -0.6700
     18 S18       -13.5624   -4.9732   57.0821 S.o2    1  ZINC000770814339    2.7000
     19 N19       -14.0763   -4.2738   55.6718 N.am    1  ZINC000770814339   -1.2500
     20 O20       -13.0343   -6.2447   56.7304 O.2     1  ZINC000770814339   -0.9600
     21 O21       -14.6144   -4.8014   58.0218 O.2     1  ZINC000770814339   -0.9600
     22 C22       -11.0644   -4.6478   58.1334 C.ar    1  ZINC000770814339   -0.0200
     23 C23        -9.9986   -3.8978   58.5947 C.ar    1  ZINC000770814339   -0.1200
     24 C24       -11.1211    0.3216   62.4428 C.2     1  ZINC000770814339    0.0600
     25 C25       -12.3828   -0.2285   62.3713 C.2     1  ZINC000770814339   -0.2000
     26 C26       -13.2957    0.8192   62.2600 C.2     1  ZINC000770814339    0.0400
     27 N27       -12.6379    1.9510   62.2623 N.2     1  ZINC000770814339   -0.2600
     28 N28       -11.2698    1.6766   62.3809 N.pl3   1  ZINC000770814339   -0.4400
     29 H29        -4.6515    2.3546   64.7763 H       1  ZINC000770814339    0.0800
     30 H30        -4.3389    0.6653   65.2418 H       1  ZINC000770814339    0.0700
     31 H31        -5.7696    1.0685   64.2627 H       1  ZINC000770814339    0.0700
     32 H32        -5.2763    1.9530   67.1422 H       1  ZINC000770814339    0.0700
     33 H33        -6.7071    2.3563   66.1631 H       1  ZINC000770814339    0.0700
     34 H34        -8.9265    1.8491   66.1673 H       1  ZINC000770814339    0.1100
     35 H35        -7.8389    1.6671   64.7702 H       1  ZINC000770814339    0.1100
     36 H36        -9.6573    0.0747   60.0109 H       1  ZINC000770814339    0.4100
     37 H37        -8.5217   -1.0889   58.2999 H       1  ZINC000770814339    0.0900
     38 H38        -8.1362   -2.3664   59.4779 H       1  ZINC000770814339    0.0900
     39 H39       -11.2781   -0.8090   58.1473 H       1  ZINC000770814339    0.1400
     40 H40       -13.1738   -2.1447   57.3196 H       1  ZINC000770814339    0.1500
     41 H41       -14.8231   -4.6560   55.1850 H       1  ZINC000770814339    0.4200
     42 H42       -13.6304   -3.4820   55.3325 H       1  ZINC000770814339    0.4200
     43 H43       -11.0042   -5.7261   58.1294 H       1  ZINC000770814339    0.1500
     44 H44        -9.1069   -4.3902   58.9536 H       1  ZINC000770814339    0.1400
     45 H45       -12.6213   -1.2816   62.3967 H       1  ZINC000770814339    0.1700
     46 H46       -14.3679    0.7144   62.1840 H       1  ZINC000770814339    0.1900
     47 H47       -10.5554    2.3321   62.4083 H       1  ZINC000770814339    0.4500
@<TRIPOS>BOND
     1     1     2    1
     2     1    29    1
     3     1    30    1
     4     1    31    1
     5     2     3    1
     6     2    32    1
     7     2    33    1
     8     3     4    1
     9     4     5    2
    10     4     6    1
    11     6     7    1
    12     6    34    1
    13     6    35    1
    14     7     8    1
    15     8     9    2
    16     9    10    1
    17     9    24    1
    18    10    11    2
    19    10    12   am
    20    12    13    1
    21    12    36    1
    22    13    14    1
    23    13    37    1
    24    13    38    1
    25    14    23   ar
    26    14    15   ar
    27    15    16   ar
    28    15    39    1
    29    16    17   ar
    30    16    40    1
    31    17    18    1
    32    17    22   ar
    33    18    19   am
    34    18    20    2
    35    18    21    2
    36    19    41    1
    37    19    42    1
    38    22    23   ar
    39    22    43    1
    40    23    44    1
    41    24    28    1
    42    24    25    2
    43    25    26    1
    44    25    45    1
    45    26    27    2
    46    26    46    1
    47    27    28    1
    48    28    47    1
@<TRIPOS>SUBSTRUCTURE
     1 ZINC000770814339        1 TEMP              0 ****  ****    0 ROOT


##########                                Name:     oleObject52.pdb
##########                DOCK_Rotatable_Bonds:                  10
##########                         Heavy_Atoms:                  38
##########                    Molecular_Weight:              533.07
##########                DOCK_Rotatable_Bonds:                  10
##########                       Formal_Charge:         0.000300027
##########                     HBond_Acceptors:                   8
##########                        HBond_Donors:                   0
##########                         Heavy_Atoms:                  38
##########                          Grid_Score:          -42.015499
##########                     Grid_vdw_energy:          -41.217640
##########                      Grid_es_energy:           -0.797860
##########           Internal_energy_repulsive:           68.468864

@<TRIPOS>MOLECULE
oleObject52.pdb
 71 74 1 0 0
SMALL
NO_CHARGES


@<TRIPOS>ATOM
      1 C         -14.7143    0.1571   49.6496 C.ar    1  UNL        -0.0596
      2 C         -13.7179    0.8376   50.3654 C.ar    1  UNL        -0.0314
      3 C         -12.9185    0.1509   51.3040 C.ar    1  UNL         0.0800
      4 C         -13.1198   -1.2319   51.5224 C.ar    1  UNL         0.0089
      5 C         -14.1301   -1.9012   50.7988 C.ar    1  UNL        -0.0541
      6 C         -14.9210   -1.2117   49.8675 C.ar    1  UNL        -0.0617
      7 C         -12.2488   -1.9715   52.5495 C.3     1  UNL         0.0953
      8 C         -10.8396   -1.3653   52.6699 C.ar    1  UNL         0.0684
      9 C         -10.5157   -0.4167   53.6724 C.ar    1  UNL        -0.0272
     10 C          -9.2003    0.0817   53.7235 C.ar    1  UNL        -0.0559
     11 C          -8.2595   -0.3742   52.7891 C.ar    1  UNL        -0.0435
     12 C          -8.6645   -1.3175   51.8332 C.ar    1  UNL         0.0272
     13 N          -9.9197   -1.8001   51.7759 N.ar    1  UNL        -0.2587
     14 C         -11.5351    0.0640   54.6980 C.3     1  UNL        -0.0379
     15 N         -12.9233   -2.2253   53.8546 N.am    1  UNL        -0.2917
     16 C         -12.3580   -3.1092   54.7801 C.2     1  UNL         0.2180
     17 O         -11.2016   -3.4764   54.6545 O.2     1  UNL        -0.2772
     18 C         -13.1160   -3.3229   56.1153 C.3     1  UNL         0.0385
     19 C         -12.9538   -2.1192   57.0748 C.3     1  UNL        -0.0289
     20 C         -11.5470   -2.0676   57.7090 C.3     1  UNL        -0.0010
     21 N         -11.2271   -3.3240   58.4256 N.4     1  UNL        -0.3010
     22 C         -11.3312   -4.5208   57.5620 C.3     1  UNL        -0.0010
     23 C         -12.7021   -4.6260   56.8493 C.3     1  UNL        -0.0289
     24 C          -9.9402   -3.2977   59.1558 C.3     1  UNL         0.0222
     25 C         -10.0583   -2.7405   60.5895 C.3     1  UNL         0.0661
     26 O          -9.3910   -1.4663   60.6215 O.3     1  UNL        -0.3432
     27 C          -9.3598   -0.6471   61.7335 C.ar    1  UNL         0.0937
     28 C          -8.6002   -0.9676   62.8782 C.ar    1  UNL        -0.0289
     29 C          -8.5960   -0.1065   63.9881 C.ar    1  UNL        -0.0417
     30 C          -9.3484    1.0806   63.9662 C.ar    1  UNL         0.0537
     31 C         -10.1061    1.4038   62.8278 C.ar    1  UNL        -0.0230
     32 C         -10.1121    0.5446   61.7164 C.ar    1  UNL         0.0721
     33 CL        -11.0705    0.9826   60.3146 Cl      1  UNL        -0.0814
     34 C          -9.3426    1.9584   65.1010 C.1     1  UNL         0.0992
     35 N          -9.3325    2.6586   66.0213 N.1     1  UNL        -0.1924
     36 C         -14.2108   -1.5365   54.0910 C.3     1  UNL         0.0037
     37 O         -11.9350    0.8020   52.0290 O.3     1  UNL        -0.3490
     38 C         -11.4283    2.1055   51.6964 C.3     1  UNL         0.0422
     39 H         -15.3265    0.6913   48.9287 H       1  UNL         0.0624
     40 H         -13.5780    1.8976   50.1825 H       1  UNL         0.0651
     41 H         -14.3110   -2.9595   50.9526 H       1  UNL         0.0627
     42 H         -15.6939   -1.7392   49.3159 H       1  UNL         0.0623
     43 H         -12.1016   -2.9651   52.1119 H       1  UNL         0.0627
     44 H          -8.9096    0.8067   54.4784 H       1  UNL         0.0627
     45 H          -7.2371   -0.0086   52.8074 H       1  UNL         0.0639
     46 H          -7.9636   -1.7007   51.0927 H       1  UNL         0.0840
     47 H         -12.4534    0.4094   54.2117 H       1  UNL         0.0280
     48 H         -11.1474    0.8987   55.2950 H       1  UNL         0.0280
     49 H         -11.8018   -0.7430   55.3921 H       1  UNL         0.0280
     50 H         -14.1804   -3.4306   55.8820 H       1  UNL         0.0402
     51 H         -13.6970   -2.2012   57.8784 H       1  UNL         0.0288
     52 H         -13.1638   -1.1774   56.5548 H       1  UNL         0.0288
     53 H         -11.5200   -1.2135   58.3955 H       1  UNL         0.0431
     54 H         -10.8010   -1.8898   56.9230 H       1  UNL         0.0431
     55 H         -11.1840   -5.4264   58.1644 H       1  UNL         0.0431
     56 H         -10.5315   -4.4993   56.8111 H       1  UNL         0.0431
     57 H         -13.4634   -4.8583   57.6052 H       1  UNL         0.0288
     58 H         -12.6941   -5.4694   56.1470 H       1  UNL         0.0288
     59 H          -9.2065   -2.7006   58.5984 H       1  UNL         0.0455
     60 H          -9.5463   -4.3199   59.2278 H       1  UNL         0.0455
     61 H          -9.5821   -3.4369   61.2916 H       1  UNL         0.0586
     62 H         -11.1132   -2.6172   60.8628 H       1  UNL         0.0586
     63 H          -8.0104   -1.8777   62.9200 H       1  UNL         0.0651
     64 H          -8.0069   -0.3633   64.8649 H       1  UNL         0.0638
     65 H         -10.6904    2.3199   62.8031 H       1  UNL         0.0653
     66 H         -14.7198   -1.3284   53.1429 H       1  UNL         0.0433
     67 H         -14.0381   -0.5900   54.6177 H       1  UNL         0.0433
     68 H         -14.8805   -2.1696   54.6843 H       1  UNL         0.0433
     69 H         -10.6651    2.4037   52.4256 H       1  UNL         0.0535
     70 H         -12.2365    2.8476   51.7160 H       1  UNL         0.0535
     71 H         -10.9707    2.0966   50.6991 H       1  UNL         0.0535
@<TRIPOS>BOND
     1     1     2   ar
     2     1     6   ar
     3     1    39    1
     4     2     3   ar
     5     2    40    1
     6     3     4   ar
     7     3    37    1
     8     4     5   ar
     9     4     7    1
    10     5     6   ar
    11     5    41    1
    12     6    42    1
    13     7     8    1
    14     7    15    1
    15     7    43    1
    16     8     9   ar
    17     8    13   ar
    18     9    10   ar
    19     9    14    1
    20    10    11   ar
    21    10    44    1
    22    11    12   ar
    23    11    45    1
    24    12    13   ar
    25    12    46    1
    26    14    47    1
    27    14    48    1
    28    14    49    1
    29    15    16   am
    30    15    36    1
    31    16    17    2
    32    16    18    1
    33    18    19    1
    34    18    23    1
    35    18    50    1
    36    19    20    1
    37    19    51    1
    38    19    52    1
    39    20    21    1
    40    20    53    1
    41    20    54    1
    42    21    22    1
    43    21    24    1
    44    22    23    1
    45    22    55    1
    46    22    56    1
    47    23    57    1
    48    23    58    1
    49    24    25    1
    50    24    59    1
    51    24    60    1
    52    25    26    1
    53    25    61    1
    54    25    62    1
    55    26    27    1
    56    27    28   ar
    57    27    32   ar
    58    28    29   ar
    59    28    63    1
    60    29    30   ar
    61    29    64    1
    62    30    31   ar
    63    30    34    1
    64    31    32   ar
    65    31    65    1
    66    32    33    1
    67    34    35    3
    68    36    66    1
    69    36    67    1
    70    36    68    1
    71    37    38    1
    72    38    69    1
    73    38    70    1
    74    38    71    1
@<TRIPOS>SUBSTRUCTURE
     1 UNL         1 TEMP              0 ****  ****    0 ROOT


##########                                Name:    ZINC000599797189
##########                DOCK_Rotatable_Bonds:                  13
##########                         Heavy_Atoms:                  23
##########                    Molecular_Weight:             329.313
##########                DOCK_Rotatable_Bonds:                  13
##########                       Formal_Charge:          0.00999949
##########                     HBond_Acceptors:                  11
##########                        HBond_Donors:                   3
##########                         Heavy_Atoms:                  23
##########                          Grid_Score:          -41.764874
##########                     Grid_vdw_energy:          -33.699982
##########                      Grid_es_energy:           -8.064893
##########           Internal_energy_repulsive:           13.878488

@<TRIPOS>MOLECULE
ZINC000599797189
 42 42 1 0 0
SMALL
USER_CHARGES


@<TRIPOS>ATOM
      1 C1        -14.0957   -4.4362   55.8269 C.3     1  ZINC000599797189   -0.1500
      2 C2        -13.4066   -4.7132   57.1646 C.3     1  ZINC000599797189    0.0600
      3 O3        -13.1971   -3.4612   57.8695 O.3     1  ZINC000599797189   -0.3600
      4 C4        -12.4065   -2.5530   57.2766 C.2     1  ZINC000599797189    0.4500
      5 O5        -12.8584   -1.4820   56.9471 O.2     1  ZINC000599797189   -0.4800
      6 C6        -10.9552   -2.8691   57.0218 C.3     1  ZINC000599797189    0.1500
      7 N7        -10.2773   -3.1131   58.2974 N.pl3   1  ZINC000599797189   -0.3800
      8 C8        -10.0641   -4.3051   58.8798 C.2     1  ZINC000599797189    0.2800
      9 N9         -9.4278   -4.1022   60.0052 N.2     1  ZINC000599797189   -0.5100
     10 C10        -9.2169   -2.7938   60.1759 C.2     1  ZINC000599797189    0.4700
     11 N11        -8.5654   -2.2095   61.2671 N.am    1  ZINC000599797189   -0.6400
     12 C12        -9.2328   -1.3634   62.0766 C.2     1  ZINC000599797189    0.7100
     13 O13       -10.4008   -1.1066   61.8573 O.2     1  ZINC000599797189   -0.5300
     14 N14        -8.6054   -0.8018   63.1289 N.am    1  ZINC000599797189   -0.7300
     15 C15        -9.3313    0.1165   64.0097 C.3     1  ZINC000599797189    0.1100
     16 C16        -8.5823    0.2490   65.3372 C.3     1  ZINC000599797189    0.1100
     17 H17        -9.2583    0.6381   66.0986 H       1  ZINC000599797189    0.1200
     18 O18        -8.0980   -1.0335   65.7408 O.3     1  ZINC000599797189   -0.5400
     19 C19        -7.4029    1.2081   65.1640 C.3     1  ZINC000599797189   -0.1500
     20 C20        -6.6775    1.3546   66.4766 C.2     1  ZINC000599797189    0.4600
     21 O21        -7.2813    1.2388   67.5168 O.2     1  ZINC000599797189   -0.4900
     22 O22        -5.3606    1.6136   66.4904 O.3     1  ZINC000599797189   -0.3600
     23 C23        -4.7106    1.7933   65.2044 C.3     1  ZINC000599797189    0.0400
     24 N24        -9.7167   -2.1478   59.1496 N.2     1  ZINC000599797189   -0.3200
     25 H25       -14.2529   -5.3760   55.2976 H       1  ZINC000599797189    0.0800
     26 H26       -15.0570   -3.9549   56.0062 H       1  ZINC000599797189    0.0700
     27 H27       -13.4679   -3.7802   55.2238 H       1  ZINC000599797189    0.0700
     28 H28       -14.0344   -5.3692   57.7677 H       1  ZINC000599797189    0.0700
     29 H29       -12.4452   -5.1945   56.9851 H       1  ZINC000599797189    0.0700
     30 H30       -10.8816   -3.7580   56.3953 H       1  ZINC000599797189    0.1500
     31 H31       -10.4836   -2.0273   56.5149 H       1  ZINC000599797189    0.1300
     32 H32       -10.3660   -5.2648   58.4871 H       1  ZINC000599797189    0.2300
     33 H33        -7.6332   -2.4134   61.4414 H       1  ZINC000599797189    0.4200
     34 H34        -7.6732   -1.0057   63.3031 H       1  ZINC000599797189    0.4000
     35 H35        -9.4040    1.0947   63.5343 H       1  ZINC000599797189    0.0800
     36 H36       -10.3325   -0.2727   64.1947 H       1  ZINC000599797189    0.0800
     37 H37        -7.5066   -1.4503   65.0992 H       1  ZINC000599797189    0.3800
     38 H38        -6.7193    0.8116   64.4133 H       1  ZINC000599797189    0.1200
     39 H39        -7.7711    2.1822   64.8417 H       1  ZINC000599797189    0.1200
     40 H40        -4.8246    0.8869   64.6098 H       1  ZINC000599797189    0.0600
     41 H41        -5.1686    2.6319   64.6798 H       1  ZINC000599797189    0.0600
     42 H42        -3.6507    1.9961   65.3582 H       1  ZINC000599797189    0.1000
@<TRIPOS>BOND
     1     1     2    1
     2     1    25    1
     3     1    26    1
     4     1    27    1
     5     2     3    1
     6     2    28    1
     7     2    29    1
     8     3     4    1
     9     4     5    2
    10     4     6    1
    11     6     7    1
    12     6    30    1
    13     6    31    1
    14     7    24    1
    15     7     8    1
    16     8     9    2
    17     8    32    1
    18     9    10    1
    19    10    11    1
    20    10    24    2
    21    11    12   am
    22    11    33    1
    23    12    13    2
    24    12    14   am
    25    14    15    1
    26    14    34    1
    27    15    16    1
    28    15    35    1
    29    15    36    1
    30    16    17    1
    31    16    18    1
    32    16    19    1
    33    18    37    1
    34    19    20    1
    35    19    38    1
    36    19    39    1
    37    20    21    2
    38    20    22    1
    39    22    23    1
    40    23    40    1
    41    23    41    1
    42    23    42    1
@<TRIPOS>SUBSTRUCTURE
     1 ZINC000599797189        1 TEMP              0 ****  ****    0 ROOT


##########                                Name:    ZINC000442010511
##########                DOCK_Rotatable_Bonds:                  11
##########                         Heavy_Atoms:                  31
##########                    Molecular_Weight:             422.481
##########                DOCK_Rotatable_Bonds:                  11
##########                       Formal_Charge:          -0.0200005
##########                     HBond_Acceptors:                   7
##########                        HBond_Donors:                   2
##########                         Heavy_Atoms:                  31
##########                          Grid_Score:          -41.704571
##########                     Grid_vdw_energy:          -35.770775
##########                      Grid_es_energy:           -5.933797
##########           Internal_energy_repulsive:           10.602559

@<TRIPOS>MOLECULE
ZINC000442010511
 57 59 1 0 0
SMALL
USER_CHARGES


@<TRIPOS>ATOM
      1 C1         -1.8785    2.1362   59.7052 C.3     1  ZINC000442010511   -0.1500
      2 C2         -1.6720    1.2518   60.9365 C.3     1  ZINC000442010511   -0.0500
      3 C3         -2.3359    1.8892   62.1299 C.2     1  ZINC000442010511    0.0000
      4 C4         -2.4986    3.2096   62.3275 C.2     1  ZINC000442010511   -0.2100
      5 C5         -3.1650    3.3595   63.5654 C.2     1  ZINC000442010511   -0.1900
      6 C6         -3.3696    2.1216   64.0502 C.2     1  ZINC000442010511   -0.0300
      7 C7         -4.0500    1.7864   65.3524 C.3     1  ZINC000442010511    0.2400
      8 H8         -3.6750    0.8325   65.7232 H       1  ZINC000442010511    0.1400
      9 C9         -3.7571    2.8832   66.3781 C.3     1  ZINC000442010511    0.0500
     10 O10        -2.3561    2.9116   66.6581 O.3     1  ZINC000442010511   -0.3800
     11 C11        -1.9737    3.9057   67.6107 C.3     1  ZINC000442010511    0.0300
     12 N12        -5.4962    1.6923   65.1377 N.am    1  ZINC000442010511   -0.6900
     13 C13        -6.2529    0.9435   65.9642 C.2     1  ZINC000442010511    0.5200
     14 O14        -5.7361    0.3461   66.8855 O.2     1  ZINC000442010511   -0.5100
     15 C15        -7.7273    0.8490   65.7465 C.2     1  ZINC000442010511    0.5100
     16 O16        -8.3990    0.1216   66.4487 O.2     1  ZINC000442010511   -0.5000
     17 N17        -8.3120    1.5713   64.7704 N.am    1  ZINC000442010511   -0.6300
     18 C18        -9.6928    1.4828   64.5665 C.ar    1  ZINC000442010511    0.1200
     19 C19       -10.5455    2.3934   65.1740 C.ar    1  ZINC000442010511   -0.1000
     20 C20       -11.9097    2.3037   64.9708 C.ar    1  ZINC000442010511   -0.1300
     21 C21       -12.4282    1.3083   64.1633 C.ar    1  ZINC000442010511   -0.0900
     22 C22       -11.5853    0.3968   63.5547 C.ar    1  ZINC000442010511   -0.1700
     23 C23       -10.2160    0.4829   63.7477 C.ar    1  ZINC000442010511    0.1000
     24 O24        -9.3860   -0.4125   63.1502 O.3     1  ZINC000442010511   -0.2600
     25 C25        -9.4400   -0.5284   61.7975 C.ar    1  ZINC000442010511    0.0800
     26 C26        -9.6979    0.5875   61.0140 C.ar    1  ZINC000442010511   -0.1300
     27 C27        -9.7519    0.4670   59.6390 C.ar    1  ZINC000442010511   -0.1100
     28 C28        -9.5497   -0.7643   59.0432 C.ar    1  ZINC000442010511   -0.0800
     29 C29        -9.6098   -0.8928   57.5429 C.3     1  ZINC000442010511   -0.1200
     30 C30        -9.2922   -1.8778   59.8215 C.ar    1  ZINC000442010511   -0.1100
     31 C31        -9.2319   -1.7618   61.1967 C.ar    1  ZINC000442010511   -0.1100
     32 O32        -2.8704    1.2348   63.1737 O.3     1  ZINC000442010511   -0.1600
     33 H33        -2.9454    2.2462   59.5117 H       1  ZINC000442010511    0.0600
     34 H34        -1.4388    3.1172   59.8847 H       1  ZINC000442010511    0.0600
     35 H35        -1.3983    1.6752   58.8421 H       1  ZINC000442010511    0.0700
     36 H36        -2.1116    0.2707   60.7571 H       1  ZINC000442010511    0.0900
     37 H37        -0.6049    1.1417   61.1301 H       1  ZINC000442010511    0.0800
     38 H38        -2.1807    4.0032   61.6676 H       1  ZINC000442010511    0.1500
     39 H39        -3.4539    4.2895   64.0324 H       1  ZINC000442010511    0.1500
     40 H40        -4.0671    3.8480   65.9768 H       1  ZINC000442010511    0.0700
     41 H41        -4.3071    2.6779   67.2965 H       1  ZINC000442010511    0.0700
     42 H42        -0.8961    3.8625   67.7684 H       1  ZINC000442010511    0.0900
     43 H43        -2.2470    4.8921   67.2360 H       1  ZINC000442010511    0.0400
     44 H44        -2.4867    3.7208   68.5546 H       1  ZINC000442010511    0.0400
     45 H45        -5.9091    2.1688   64.4005 H       1  ZINC000442010511    0.4200
     46 H46        -7.7751    2.1526   64.2094 H       1  ZINC000442010511    0.4300
     47 H47       -10.1436    3.1718   65.8055 H       1  ZINC000442010511    0.1600
     48 H48       -12.5725    3.0129   65.4444 H       1  ZINC000442010511    0.1300
     49 H49       -13.4949    1.2425   64.0077 H       1  ZINC000442010511    0.1300
     50 H50       -11.9939   -0.3798   62.9252 H       1  ZINC000442010511    0.1300
     51 H51        -9.8565    1.5493   61.4789 H       1  ZINC000442010511    0.1300
     52 H52        -9.9525    1.3352   59.0287 H       1  ZINC000442010511    0.1300
     53 H53        -8.6164   -0.7309   57.1243 H       1  ZINC000442010511    0.0700
     54 H54        -9.9576   -1.8912   57.2774 H       1  ZINC000442010511    0.0700
     55 H55       -10.2987   -0.1495   57.1418 H       1  ZINC000442010511    0.0700
     56 H56        -9.1347   -2.8383   59.3537 H       1  ZINC000442010511    0.1300
     57 H57        -9.0305   -2.6318   61.8041 H       1  ZINC000442010511    0.1300
@<TRIPOS>BOND
     1     1     2    1
     2     1    33    1
     3     1    34    1
     4     1    35    1
     5     2     3    1
     6     2    36    1
     7     2    37    1
     8     3    32    1
     9     3     4    2
    10     4     5    1
    11     4    38    1
    12     5     6    2
    13     5    39    1
    14     6     7    1
    15     6    32    1
    16     7     8    1
    17     7     9    1
    18     7    12    1
    19     9    10    1
    20     9    40    1
    21     9    41    1
    22    10    11    1
    23    11    42    1
    24    11    43    1
    25    11    44    1
    26    12    13   am
    27    12    45    1
    28    13    14    2
    29    13    15    1
    30    15    16    2
    31    15    17   am
    32    17    18    1
    33    17    46    1
    34    18    23   ar
    35    18    19   ar
    36    19    20   ar
    37    19    47    1
    38    20    21   ar
    39    20    48    1
    40    21    22   ar
    41    21    49    1
    42    22    23   ar
    43    22    50    1
    44    23    24    1
    45    24    25    1
    46    25    31   ar
    47    25    26   ar
    48    26    27   ar
    49    26    51    1
    50    27    28   ar
    51    27    52    1
    52    28    29    1
    53    28    30   ar
    54    29    53    1
    55    29    54    1
    56    29    55    1
    57    30    31   ar
    58    30    56    1
    59    31    57    1
@<TRIPOS>SUBSTRUCTURE
     1 ZINC000442010511        1 TEMP              0 ****  ****    0 ROOT


##########                                Name:     oleObject79.pdb
##########                DOCK_Rotatable_Bonds:                  12
##########                         Heavy_Atoms:                  53
##########                    Molecular_Weight:             725.376
##########                DOCK_Rotatable_Bonds:                  12
##########                       Formal_Charge:          0.00050066
##########                     HBond_Acceptors:                   8
##########                        HBond_Donors:                   4
##########                         Heavy_Atoms:                  53
##########                          Grid_Score:          -41.640987
##########                     Grid_vdw_energy:          -41.142738
##########                      Grid_es_energy:           -0.498250
##########           Internal_energy_repulsive:           51.603107

@<TRIPOS>MOLECULE
oleObject79.pdb
 102 108 1 0 0
SMALL
NO_CHARGES


@<TRIPOS>ATOM
      1 C         -13.8144   -2.6762   60.4000 C.ar    1  UNL        -0.0620
      2 C         -13.1463   -1.7490   61.2117 C.ar    1  UNL        -0.0590
      3 C         -12.4724   -0.6487   60.6464 C.ar    1  UNL        -0.0456
      4 C         -12.4704   -0.4728   59.2371 C.ar    1  UNL        -0.0185
      5 C         -13.1494   -1.4174   58.4371 C.ar    1  UNL        -0.0565
      6 C         -13.8154   -2.5099   59.0104 C.ar    1  UNL        -0.0619
      7 C         -11.7970    0.7405   58.5643 C.3     1  UNL         0.0931
      8 C         -12.0042    2.0853   59.2860 C.ar    1  UNL         0.0683
      9 C         -13.2888    2.6784   59.3868 C.ar    1  UNL        -0.0272
     10 C         -13.4088    3.9089   60.0598 C.ar    1  UNL        -0.0559
     11 C         -12.2632    4.5039   60.6073 C.ar    1  UNL        -0.0435
     12 C         -11.0323    3.8476   60.4636 C.ar    1  UNL         0.0272
     13 N         -10.9076    2.6717   59.8207 N.ar    1  UNL        -0.2587
     14 C         -14.5349    2.0303   58.7922 C.3     1  UNL        -0.0379
     15 N         -10.3830    0.4428   58.2017 N.am    1  UNL        -0.2918
     16 C          -9.7823    1.0819   57.1149 C.2     1  UNL         0.2179
     17 O          -8.5674    1.0915   57.0057 O.2     1  UNL        -0.2772
     18 C         -10.6610    2.0946   56.3320 C.3     1  UNL         0.0361
     19 C         -11.5440    1.4239   55.2408 C.3     1  UNL        -0.0412
     20 C         -10.7492    0.9590   53.9893 C.3     1  UNL        -0.0453
     21 C          -9.8290    2.0521   53.3685 C.3     1  UNL        -0.0139
     22 C          -8.8620    1.3680   52.3627 C.3     1  UNL         0.0171
     23 N          -8.0309    2.3675   51.6615 N.pl3   1  UNL        -0.3290
     24 C          -8.8043    3.3357   50.8596 C.3     1  UNL         0.0115
     25 C          -9.8330    4.0775   51.7453 C.3     1  UNL        -0.0368
     26 C         -10.6884    3.0946   52.5838 C.3     1  UNL        -0.0446
     27 C          -6.6393    2.2457   51.5879 C.ar    1  UNL         0.0476
     28 C          -5.8351    3.2808   52.1036 C.ar    1  UNL        -0.0375
     29 C          -4.4355    3.2156   52.0250 C.ar    1  UNL        -0.0388
     30 C          -3.8060    2.1236   51.4082 C.ar    1  UNL         0.0318
     31 C          -4.6010    1.0769   50.9063 C.ar    1  UNL        -0.0202
     32 C          -6.0027    1.1340   50.9865 C.ar    1  UNL         0.0636
     33 CL         -6.8979   -0.1862   50.2540 Cl      1  UNL        -0.0822
     34 N          -2.4142    2.0933   51.3484 N.pl3   1  UNL        -0.3149
     35 C          -1.5408    1.7124   50.3310 C.ar    1  UNL         0.0302
     36 C          -1.9673    1.5408   49.0011 C.ar    1  UNL        -0.0402
     37 C          -1.0526    1.1823   47.9981 C.ar    1  UNL        -0.0525
     38 C           0.3211    0.9905   48.2880 C.ar    1  UNL        -0.0182
     39 C           0.7362    1.1856   49.6287 C.ar    1  UNL        -0.0525
     40 C          -0.1787    1.5491   50.6303 C.ar    1  UNL        -0.0402
     41 C           1.3003    0.6065   47.2166 C.ar    1  UNL        -0.0177
     42 C           2.6697    0.3890   47.5150 C.ar    1  UNL        -0.0439
     43 C           3.6042    0.0304   46.5190 C.ar    1  UNL         0.0111
     44 C           3.1538   -0.1122   45.1903 C.ar    1  UNL        -0.0518
     45 C           1.8046    0.0961   44.8700 C.ar    1  UNL        -0.0609
     46 C           0.8884    0.4502   45.8708 C.ar    1  UNL        -0.0543
     47 C           4.9480   -0.1824   46.8433 C.2     1  UNL         0.1014
     48 N           5.3808   -0.1159   48.0485 N.3     1  UNL        -0.2892
     49 N           5.8488   -0.4623   45.8916 N.3     1  UNL        -0.2870
     50 C          -8.9836    2.7196   54.4976 C.3     1  UNL        -0.0453
     51 C          -9.8278    3.2311   55.6844 C.3     1  UNL        -0.0412
     52 C          -9.6374   -0.5186   59.0433 C.3     1  UNL         0.0037
     53 C         -11.7856    0.3319   61.5910 C.3     1  UNL        -0.0394
     54 H         -14.3336   -3.5190   60.8460 H       1  UNL         0.0623
     55 H         -13.1583   -1.8842   62.2894 H       1  UNL         0.0626
     56 H         -13.1643   -1.3056   57.3581 H       1  UNL         0.0627
     57 H         -14.3337   -3.2241   58.3773 H       1  UNL         0.0623
     58 H         -12.3151    0.8876   57.6154 H       1  UNL         0.0626
     59 H         -14.3743    4.3969   60.1587 H       1  UNL         0.0627
     60 H         -12.3273    5.4521   61.1328 H       1  UNL         0.0639
     61 H         -10.1185    4.2742   60.8754 H       1  UNL         0.0840
     62 H         -14.4442    1.9192   57.7049 H       1  UNL         0.0280
     63 H         -15.4330    2.6306   58.9838 H       1  UNL         0.0280
     64 H         -14.7105    1.0366   59.2224 H       1  UNL         0.0280
     65 H         -11.3429    2.5457   57.0630 H       1  UNL         0.0401
     66 H         -12.3118    2.1403   54.9223 H       1  UNL         0.0275
     67 H         -12.0844    0.5712   55.6717 H       1  UNL         0.0275
     68 H         -11.4541    0.5897   53.2332 H       1  UNL         0.0273
     69 H         -10.1358    0.0916   54.2598 H       1  UNL         0.0273
     70 H          -9.4424    0.7974   51.6260 H       1  UNL         0.0474
     71 H          -8.2251    0.6566   52.9049 H       1  UNL         0.0474
     72 H          -9.3394    2.7972   50.0670 H       1  UNL         0.0468
     73 H          -8.1419    4.0618   50.3725 H       1  UNL         0.0468
     74 H         -10.4881    4.6887   51.1120 H       1  UNL         0.0283
     75 H          -9.3106    4.7736   52.4121 H       1  UNL         0.0283
     76 H         -11.3555    2.5593   51.8953 H       1  UNL         0.0273
     77 H         -11.3407    3.6610   53.2584 H       1  UNL         0.0273
     78 H          -6.2966    4.1422   52.5777 H       1  UNL         0.0644
     79 H          -3.8386    4.0270   52.4319 H       1  UNL         0.0643
     80 H          -4.1346    0.2080   50.4525 H       1  UNL         0.0659
     81 H          -1.9545    2.4251   52.1865 H       1  UNL         0.1528
     82 H          -3.0053    1.7020   48.7315 H       1  UNL         0.0643
     83 H          -1.4228    1.0416   46.9874 H       1  UNL         0.0630
     84 H           1.7822    1.0760   49.8970 H       1  UNL         0.0630
     85 H           0.1736    1.6988   51.6470 H       1  UNL         0.0643
     86 H           3.0084    0.4936   48.5411 H       1  UNL         0.0637
     87 H           3.8435   -0.3976   44.4007 H       1  UNL         0.0630
     88 H           1.4682   -0.0162   43.8431 H       1  UNL         0.0623
     89 H          -0.1465    0.6223   45.5918 H       1  UNL         0.0629
     90 H           4.8589    0.5828   48.5817 H       1  UNL         0.1889
     91 H           5.5610   -0.9592   45.0506 H       1  UNL         0.1258
     92 H           6.5175    0.2520   45.6091 H       1  UNL         0.1258
     93 H          -8.3817    3.5474   54.1065 H       1  UNL         0.0273
     94 H          -8.2643    1.9850   54.8775 H       1  UNL         0.0273
     95 H         -10.5019    4.0250   55.3415 H       1  UNL         0.0275
     96 H          -9.1695    3.7042   56.4204 H       1  UNL         0.0275
     97 H          -9.1767   -1.2990   58.4276 H       1  UNL         0.0433
     98 H         -10.2942   -1.0108   59.7695 H       1  UNL         0.0433
     99 H          -8.8491    0.0142   59.5894 H       1  UNL         0.0433
    100 H         -11.8341   -0.0051   62.6340 H       1  UNL         0.0280
    101 H         -12.2618    1.3194   61.5456 H       1  UNL         0.0280
    102 H         -10.7249    0.4496   61.3365 H       1  UNL         0.0280
@<TRIPOS>BOND
     1     1     2   ar
     2     1     6   ar
     3     1    54    1
     4     2     3   ar
     5     2    55    1
     6     3     4   ar
     7     3    53    1
     8     4     5   ar
     9     4     7    1
    10     5     6   ar
    11     5    56    1
    12     6    57    1
    13     7     8    1
    14     7    15    1
    15     7    58    1
    16     8     9   ar
    17     8    13   ar
    18     9    10   ar
    19     9    14    1
    20    10    11   ar
    21    10    59    1
    22    11    12   ar
    23    11    60    1
    24    12    13   ar
    25    12    61    1
    26    14    62    1
    27    14    63    1
    28    14    64    1
    29    15    16   am
    30    15    52    1
    31    16    17    2
    32    16    18    1
    33    18    19    1
    34    18    51    1
    35    18    65    1
    36    19    20    1
    37    19    66    1
    38    19    67    1
    39    20    21    1
    40    20    68    1
    41    20    69    1
    42    21    22    1
    43    21    26    1
    44    21    50    1
    45    22    23    1
    46    22    70    1
    47    22    71    1
    48    23    24    1
    49    23    27    1
    50    24    25    1
    51    24    72    1
    52    24    73    1
    53    25    26    1
    54    25    74    1
    55    25    75    1
    56    26    76    1
    57    26    77    1
    58    27    28   ar
    59    27    32   ar
    60    28    29   ar
    61    28    78    1
    62    29    30   ar
    63    29    79    1
    64    30    31   ar
    65    30    34    1
    66    31    32   ar
    67    31    80    1
    68    32    33    1
    69    34    35    1
    70    34    81    1
    71    35    36   ar
    72    35    40   ar
    73    36    37   ar
    74    36    82    1
    75    37    38   ar
    76    37    83    1
    77    38    39   ar
    78    38    41    1
    79    39    40   ar
    80    39    84    1
    81    40    85    1
    82    41    42   ar
    83    41    46   ar
    84    42    43   ar
    85    42    86    1
    86    43    44   ar
    87    43    47    1
    88    44    45   ar
    89    44    87    1
    90    45    46   ar
    91    45    88    1
    92    46    89    1
    93    47    48    1
    94    47    49    1
    95    48    90    1
    96    49    91    1
    97    49    92    1
    98    50    51    1
    99    50    93    1
   100    50    94    1
   101    51    95    1
   102    51    96    1
   103    52    97    1
   104    52    98    1
   105    52    99    1
   106    53   100    1
   107    53   101    1
   108    53   102    1
@<TRIPOS>SUBSTRUCTURE
     1 UNL         1 TEMP              0 ****  ****    0 ROOT


##########                                Name:    ZINC001596273020
##########                DOCK_Rotatable_Bonds:                  11
##########                         Heavy_Atoms:                  25
##########                    Molecular_Weight:             355.478
##########                DOCK_Rotatable_Bonds:                  11
##########                       Formal_Charge:          -0.0499996
##########                     HBond_Acceptors:                   7
##########                        HBond_Donors:                   2
##########                         Heavy_Atoms:                  25
##########                          Grid_Score:          -41.492939
##########                     Grid_vdw_energy:          -34.865017
##########                      Grid_es_energy:           -6.627923
##########           Internal_energy_repulsive:           22.797794

@<TRIPOS>MOLECULE
ZINC001596273020
 58 59 1 0 0
SMALL
USER_CHARGES


@<TRIPOS>ATOM
      1 C1         -9.1714    3.5697   65.4974 C.3     1  ZINC001596273020   -0.1900
      2 C2         -9.5180    2.1067   65.2136 C.3     1  ZINC001596273020   -0.0200
      3 N3         -8.4155    1.4766   64.4750 N.4     1  ZINC001596273020   -0.3900
      4 H4         -8.1774    2.0454   63.6763 H       1  ZINC001596273020    0.4300
      5 C5         -7.2451    1.3525   65.3540 C.3     1  ZINC001596273020   -0.0100
      6 C6         -7.5513    0.3552   66.4730 C.3     1  ZINC001596273020   -0.1900
      7 C7         -8.8301    0.1428   64.0201 C.3     1  ZINC001596273020   -0.0100
      8 C8         -9.7743    0.2824   62.8243 C.3     1  ZINC001596273020    0.0300
      9 O9        -10.0011   -1.0036   62.2440 O.3     1  ZINC001596273020   -0.3900
     10 C10        -8.8338   -1.5969   61.6715 C.3     1  ZINC001596273020    0.0500
     11 C11        -9.2116   -2.9165   60.9957 C.3     1  ZINC001596273020    0.1400
     12 N12        -9.9794   -2.6399   59.7791 N.am    1  ZINC001596273020   -0.7500
     13 C13       -10.0620   -3.5709   58.8081 C.2     1  ZINC001596273020    0.7200
     14 O14        -9.4980   -4.6399   58.9412 O.2     1  ZINC001596273020   -0.6000
     15 N15       -10.7697   -3.3171   57.6895 N.am    1  ZINC001596273020   -0.6300
     16 C16       -10.9810   -4.2119   56.5249 C.3     1  ZINC001596273020    0.1100
     17 C17       -12.4805   -3.9989   56.1682 C.3     1  ZINC001596273020   -0.0800
     18 H18       -12.6209   -4.1018   55.0922 H       1  ZINC001596273020    0.1200
     19 C19       -13.2774   -5.0656   56.8924 C.3     1  ZINC001596273020   -0.1000
     20 C20       -14.6879   -4.6138   57.2439 C.3     1  ZINC001596273020   -0.1200
     21 C21       -14.5806   -3.3641   58.1277 C.3     1  ZINC001596273020   -0.1200
     22 C22       -14.0402   -2.2311   57.2611 C.3     1  ZINC001596273020   -0.0800
     23 C23       -12.7539   -2.5704   56.5846 C.3     1  ZINC001596273020   -0.1400
     24 C24       -12.7419   -1.7742   55.3052 C.2     1  ZINC001596273020    0.5000
     25 O25       -13.5479   -0.8745   55.1395 O.co2   1  ZINC001596273020   -0.6900
     26 O26       -11.9262   -2.0297   54.4357 O.co2   1  ZINC001596273020   -0.6900
     27 C27       -11.5178   -2.0827   57.3482 C.3     1  ZINC001596273020    0.1600
     28 H28        -8.3265    3.6161   66.1845 H       1  ZINC001596273020    0.0800
     29 H29        -8.9088    4.0684   64.5645 H       1  ZINC001596273020    0.0800
     30 H30       -10.0319    4.0665   65.9454 H       1  ZINC001596273020    0.1000
     31 H31        -9.6717    1.5804   66.1556 H       1  ZINC001596273020    0.1300
     32 H32       -10.4292    2.0583   64.6174 H       1  ZINC001596273020    0.1300
     33 H33        -6.3919    0.9987   64.7753 H       1  ZINC001596273020    0.1300
     34 H34        -7.0117    2.3249   65.7877 H       1  ZINC001596273020    0.1300
     35 H35        -8.3309    0.7607   67.1179 H       1  ZINC001596273020    0.0800
     36 H36        -7.8913   -0.5849   66.0388 H       1  ZINC001596273020    0.0800
     37 H37        -6.6495    0.1793   67.0597 H       1  ZINC001596273020    0.1000
     38 H38        -7.9510   -0.4296   63.7241 H       1  ZINC001596273020    0.1400
     39 H39        -9.3442   -0.3739   64.8306 H       1  ZINC001596273020    0.1400
     40 H40       -10.7231    0.7029   63.1576 H       1  ZINC001596273020    0.1000
     41 H41        -9.3254    0.9420   62.0818 H       1  ZINC001596273020    0.0700
     42 H42        -8.4072   -0.9192   60.9321 H       1  ZINC001596273020    0.0700
     43 H43        -8.1011   -1.7870   62.4558 H       1  ZINC001596273020    0.0700
     44 H44        -8.3057   -3.4646   60.7370 H       1  ZINC001596273020    0.0900
     45 H45        -9.8154   -3.5144   61.6784 H       1  ZINC001596273020    0.0700
     46 H46       -10.4284   -1.7868   59.6724 H       1  ZINC001596273020    0.3900
     47 H47       -10.3428   -3.9154   55.6925 H       1  ZINC001596273020    0.0700
     48 H48       -10.7960   -5.2502   56.8004 H       1  ZINC001596273020    0.0600
     49 H49       -13.3394   -5.9495   56.2576 H       1  ZINC001596273020    0.0500
     50 H50       -12.7545   -5.3316   57.8110 H       1  ZINC001596273020    0.0400
     51 H51       -15.2358   -4.3743   56.3324 H       1  ZINC001596273020    0.0700
     52 H52       -15.2036   -5.4058   57.7869 H       1  ZINC001596273020    0.0500
     53 H53       -15.5650   -3.0979   58.5127 H       1  ZINC001596273020    0.0600
     54 H54       -13.8977   -3.5543   58.9557 H       1  ZINC001596273020    0.0500
     55 H55       -14.7829   -1.9869   56.5015 H       1  ZINC001596273020    0.0600
     56 H56       -13.8844   -1.3540   57.8892 H       1  ZINC001596273020    0.0600
     57 H57       -11.8151   -1.5518   58.2525 H       1  ZINC001596273020    0.0700
     58 H58       -10.9077   -1.4407   56.7128 H       1  ZINC001596273020    0.0700
@<TRIPOS>BOND
     1     1     2    1
     2     1    28    1
     3     1    29    1
     4     1    30    1
     5     2     3    1
     6     2    31    1
     7     2    32    1
     8     3     4    1
     9     3     5    1
    10     3     7    1
    11     5     6    1
    12     5    33    1
    13     5    34    1
    14     6    35    1
    15     6    36    1
    16     6    37    1
    17     7     8    1
    18     7    38    1
    19     7    39    1
    20     8     9    1
    21     8    40    1
    22     8    41    1
    23     9    10    1
    24    10    11    1
    25    10    42    1
    26    10    43    1
    27    11    12    1
    28    11    44    1
    29    11    45    1
    30    12    13   am
    31    12    46    1
    32    13    14    2
    33    13    15   am
    34    15    27    1
    35    15    16    1
    36    16    17    1
    37    16    47    1
    38    16    48    1
    39    17    18    1
    40    17    23    1
    41    17    19    1
    42    19    20    1
    43    19    49    1
    44    19    50    1
    45    20    21    1
    46    20    51    1
    47    20    52    1
    48    21    22    1
    49    21    53    1
    50    21    54    1
    51    22    23    1
    52    22    55    1
    53    22    56    1
    54    23    24    1
    55    23    27    1
    56    24    25   ar
    57    24    26   ar
    58    27    57    1
    59    27    58    1
@<TRIPOS>SUBSTRUCTURE
     1 ZINC001596273020        1 TEMP              0 ****  ****    0 ROOT


##########                                Name:    ZINC000508765459
##########                DOCK_Rotatable_Bonds:                  10
##########                         Heavy_Atoms:                  29
##########                    Molecular_Weight:               405.5
##########                DOCK_Rotatable_Bonds:                  10
##########                       Formal_Charge:         -6.4075e-07
##########                     HBond_Acceptors:                  10
##########                        HBond_Donors:                   1
##########                         Heavy_Atoms:                  29
##########                          Grid_Score:          -41.291801
##########                     Grid_vdw_energy:          -40.709686
##########                      Grid_es_energy:           -0.582116
##########           Internal_energy_repulsive:           18.018845

@<TRIPOS>MOLECULE
ZINC000508765459
 60 62 1 0 0
SMALL
USER_CHARGES


@<TRIPOS>ATOM
      1 C1         -9.2175    1.9393   65.2291 C.3     1  ZINC000508765459    0.0300
      2 O2        -10.1180    2.1814   64.1462 O.3     1  ZINC000508765459   -0.3900
      3 C3         -9.8458    1.4033   62.9790 C.3     1  ZINC000508765459    0.0500
      4 C4        -10.4807    0.0194   63.1292 C.3     1  ZINC000508765459    0.1100
      5 N5        -10.3010   -0.7376   61.8878 N.am    1  ZINC000508765459   -0.5900
      6 C6        -11.3411   -0.6320   60.8737 C.3     1  ZINC000508765459    0.1000
      7 C7        -10.7932   -1.0017   59.4939 C.3     1  ZINC000508765459    0.1200
      8 N8        -10.0203   -2.2484   59.6253 N.am    1  ZINC000508765459   -0.6400
      9 C9        -10.3755   -3.3667   58.9623 C.2     1  ZINC000508765459    0.7100
     10 O10        -9.7204   -4.3831   59.0898 O.2     1  ZINC000508765459   -0.5800
     11 N11       -11.4569   -3.3584   58.1579 N.am    1  ZINC000508765459   -0.7400
     12 C12       -11.8441   -4.5745   57.4386 C.3     1  ZINC000508765459    0.1400
     13 C13       -12.5563   -4.1935   56.1391 C.3     1  ZINC000508765459   -0.1400
     14 C14       -11.6815   -3.2223   55.3440 C.3     1  ZINC000508765459    0.0600
     15 N15       -12.2321   -3.0622   53.9916 N.3     1  ZINC000508765459   -0.5400
     16 C16       -11.4095   -2.1424   53.1934 C.3     1  ZINC000508765459    0.0500
     17 C17       -11.9695   -2.0648   51.7712 C.3     1  ZINC000508765459    0.0700
     18 N18       -13.3658   -1.6093   51.8216 N.3     1  ZINC000508765459   -0.4600
     19 C19       -13.8846   -1.4586   50.5472 C.ar    1  ZINC000508765459    0.4900
     20 N20       -13.6211   -0.3518   49.8684 N.ar    1  ZINC000508765459   -0.5500
     21 C21       -14.1010   -0.1764   48.6483 C.ar    1  ZINC000508765459    0.1700
     22 C22       -14.8873   -1.1675   48.0822 C.ar    1  ZINC000508765459   -0.2600
     23 C23       -15.1434   -2.3126   48.8201 C.ar    1  ZINC000508765459    0.1700
     24 N24       -14.6286   -2.4270   50.0332 N.ar    1  ZINC000508765459   -0.5300
     25 C25       -14.1884   -2.5291   52.6197 C.3     1  ZINC000508765459    0.0700
     26 C26       -13.6284   -2.6067   54.0418 C.3     1  ZINC000508765459    0.0600
     27 C27        -8.8450   -2.2232   60.5086 C.3     1  ZINC000508765459    0.1000
     28 C28        -9.1938   -1.4709   61.7635 C.2     1  ZINC000508765459    0.5100
     29 O29        -8.4377   -1.5410   62.7091 O.2     1  ZINC000508765459   -0.5400
     30 H30        -8.2005    2.1748   64.9156 H       1  ZINC000508765459    0.0400
     31 H31        -9.4911    2.5678   66.0767 H       1  ZINC000508765459    0.0900
     32 H32        -9.2741    0.8906   65.5211 H       1  ZINC000508765459    0.0400
     33 H33       -10.2638    1.9018   62.1044 H       1  ZINC000508765459    0.0500
     34 H34        -8.7679    1.2973   62.8562 H       1  ZINC000508765459    0.0600
     35 H35       -10.0024   -0.5125   63.9516 H       1  ZINC000508765459    0.1100
     36 H36       -11.5451    0.1286   63.3373 H       1  ZINC000508765459    0.0900
     37 H37       -12.1592   -1.3062   61.1273 H       1  ZINC000508765459    0.0700
     38 H38       -11.7153    0.3915   60.8487 H       1  ZINC000508765459    0.1000
     39 H39       -11.6190   -1.1524   58.7986 H       1  ZINC000508765459    0.1200
     40 H40       -10.1457   -0.2042   59.1296 H       1  ZINC000508765459    0.0800
     41 H41       -11.9788   -2.5472   58.0553 H       1  ZINC000508765459    0.4000
     42 H42       -10.9535   -5.1588   57.2070 H       1  ZINC000508765459    0.0700
     43 H43       -12.5155   -5.1664   58.0607 H       1  ZINC000508765459    0.0700
     44 H44       -12.7349   -5.0905   55.5462 H       1  ZINC000508765459    0.0700
     45 H45       -13.5083   -3.7169   56.3729 H       1  ZINC000508765459    0.0800
     46 H46       -11.6636   -2.2550   55.8459 H       1  ZINC000508765459    0.0800
     47 H47       -10.6673   -3.6167   55.2790 H       1  ZINC000508765459    0.0400
     48 H48       -11.4287   -1.1511   53.6464 H       1  ZINC000508765459    0.0500
     49 H49       -10.3831   -2.5078   53.1607 H       1  ZINC000508765459    0.0900
     50 H50       -11.3783   -1.3610   51.1854 H       1  ZINC000508765459    0.0900
     51 H51       -11.9252   -3.0508   51.3085 H       1  ZINC000508765459    0.0600
     52 H52       -13.8829    0.7281   48.0999 H       1  ZINC000508765459    0.1700
     53 H53       -15.2922   -1.0499   47.0878 H       1  ZINC000508765459    0.1500
     54 H54       -15.7527   -3.1034   48.4081 H       1  ZINC000508765459    0.1700
     55 H55       -15.2149   -2.1637   52.6525 H       1  ZINC000508765459    0.1000
     56 H56       -14.1692   -3.5203   52.1666 H       1  ZINC000508765459    0.0500
     57 H57       -14.2196   -3.3105   54.6276 H       1  ZINC000508765459    0.0900
     58 H58       -13.6728   -1.6207   54.5045 H       1  ZINC000508765459    0.0500
     59 H59        -8.5553   -3.2435   60.7599 H       1  ZINC000508765459    0.1100
     60 H60        -8.0196   -1.7214   60.0038 H       1  ZINC000508765459    0.1100
@<TRIPOS>BOND
     1     1     2    1
     2     1    30    1
     3     1    31    1
     4     1    32    1
     5     2     3    1
     6     3     4    1
     7     3    33    1
     8     3    34    1
     9     4     5    1
    10     4    35    1
    11     4    36    1
    12     5    28   am
    13     5     6    1
    14     6     7    1
    15     6    37    1
    16     6    38    1
    17     7     8    1
    18     7    39    1
    19     7    40    1
    20     8     9   am
    21     8    27    1
    22     9    10    2
    23     9    11   am
    24    11    12    1
    25    11    41    1
    26    12    13    1
    27    12    42    1
    28    12    43    1
    29    13    14    1
    30    13    44    1
    31    13    45    1
    32    14    15    1
    33    14    46    1
    34    14    47    1
    35    15    26    1
    36    15    16    1
    37    16    17    1
    38    16    48    1
    39    16    49    1
    40    17    18    1
    41    17    50    1
    42    17    51    1
    43    18    19    1
    44    18    25    1
    45    19    24   ar
    46    19    20   ar
    47    20    21   ar
    48    21    22   ar
    49    21    52    1
    50    22    23   ar
    51    22    53    1
    52    23    24   ar
    53    23    54    1
    54    25    26    1
    55    25    55    1
    56    25    56    1
    57    26    57    1
    58    26    58    1
    59    27    28    1
    60    27    59    1
    61    27    60    1
    62    28    29    2
@<TRIPOS>SUBSTRUCTURE
     1 ZINC000508765459        1 TEMP              0 ****  ****    0 ROOT


##########                                Name:     oleObject14.pdb
##########                DOCK_Rotatable_Bonds:                   9
##########                         Heavy_Atoms:                  33
##########                    Molecular_Weight:             484.424
##########                DOCK_Rotatable_Bonds:                   9
##########                       Formal_Charge:         0.000299782
##########                     HBond_Acceptors:                   7
##########                        HBond_Donors:                   1
##########                         Heavy_Atoms:                  33
##########                          Grid_Score:          -41.263294
##########                     Grid_vdw_energy:          -40.842106
##########                      Grid_es_energy:           -0.421187
##########           Internal_energy_repulsive:            6.593662

@<TRIPOS>MOLECULE
oleObject14.pdb
 60 63 1 0 0
SMALL
NO_CHARGES


@<TRIPOS>ATOM
      1 C          -9.2966    0.6811   63.7267 C.ar    1  UNL         0.0422
      2 C          -8.6714   -0.5750   63.6834 C.ar    1  UNL        -0.0408
      3 C          -8.6932   -1.3317   62.4999 C.ar    1  UNL        -0.0288
      4 C          -9.3429   -0.8335   61.3503 C.ar    1  UNL         0.0937
      5 C          -9.9680    0.4292   61.4027 C.ar    1  UNL         0.0723
      6 C          -9.9446    1.1837   62.5876 C.ar    1  UNL        -0.0221
      7 CL        -10.7864    1.0863   59.9976 Cl      1  UNL        -0.0814
      8 O          -9.3871   -1.5458   60.1672 O.3     1  UNL        -0.3432
      9 C          -9.7758   -2.9285   60.0847 C.3     1  UNL         0.0661
     10 C          -9.8208   -3.3164   58.5921 C.3     1  UNL         0.0222
     11 N         -11.1924   -3.3785   58.0403 N.4     1  UNL        -0.3010
     12 C         -11.6054   -2.1647   57.2975 C.3     1  UNL        -0.0010
     13 C         -13.0802   -2.2409   56.8437 C.3     1  UNL        -0.0289
     14 C         -13.3938   -3.5206   56.0314 C.3     1  UNL         0.0382
     15 C         -12.8689   -4.7695   56.7836 C.3     1  UNL        -0.0289
     16 C         -11.4084   -4.6233   57.2715 C.3     1  UNL        -0.0010
     17 C         -12.8449   -3.4301   54.5860 C.2     1  UNL         0.2156
     18 O         -12.2519   -4.3564   54.0638 O.2     1  UNL        -0.2774
     19 N         -13.0661   -2.2839   53.8334 N.am    1  UNL        -0.3025
     20 C         -12.6255   -2.0148   52.4516 C.3     1  UNL         0.0900
     21 C         -13.6382   -1.1969   51.6524 C.ar    1  UNL        -0.0217
     22 C         -14.5367   -0.3207   52.2941 C.ar    1  UNL        -0.0568
     23 C         -15.4690    0.4155   51.5448 C.ar    1  UNL        -0.0619
     24 C         -15.5085    0.2847   50.1478 C.ar    1  UNL        -0.0622
     25 C         -14.6129   -0.5810   49.5007 C.ar    1  UNL        -0.0619
     26 C         -13.6808   -1.3171   50.2502 C.ar    1  UNL        -0.0568
     27 C         -11.2506   -1.3545   52.4167 C.ar    1  UNL         0.0652
     28 C         -11.0782    0.0147   52.7075 C.ar    1  UNL        -0.0383
     29 C          -9.7885    0.5668   52.6501 C.ar    1  UNL        -0.0588
     30 C          -8.7158   -0.2689   52.3026 C.ar    1  UNL        -0.0438
     31 C          -8.9766   -1.6220   52.0261 C.ar    1  UNL         0.0272
     32 N         -10.2145   -2.1538   52.0807 N.ar    1  UNL        -0.2590
     33 CL         -9.2676    1.6215   65.2029 Cl      1  UNL        -0.0843
     34 H          -8.1698   -0.9631   64.5654 H       1  UNL         0.0639
     35 H          -8.2030   -2.2999   62.4891 H       1  UNL         0.0652
     36 H         -10.4281    2.1559   62.6220 H       1  UNL         0.0655
     37 H         -10.7625   -3.0679   60.5424 H       1  UNL         0.0586
     38 H          -9.0440   -3.5606   60.6038 H       1  UNL         0.0586
     39 H          -9.3470   -4.3015   58.4905 H       1  UNL         0.0455
     40 H          -9.2186   -2.6005   58.0174 H       1  UNL         0.0455
     41 H         -10.9617   -2.0324   56.4180 H       1  UNL         0.0431
     42 H         -11.4952   -1.2729   57.9251 H       1  UNL         0.0431
     43 H         -13.3321   -1.3482   56.2595 H       1  UNL         0.0288
     44 H         -13.7201   -2.2218   57.7354 H       1  UNL         0.0288
     45 H         -14.4814   -3.6259   55.9947 H       1  UNL         0.0402
     46 H         -12.9623   -5.6587   56.1471 H       1  UNL         0.0288
     47 H         -13.5067   -4.9442   57.6598 H       1  UNL         0.0288
     48 H         -10.7320   -4.6445   56.4077 H       1  UNL         0.0431
     49 H         -11.1641   -5.4922   57.8963 H       1  UNL         0.0431
     50 H         -13.6786   -1.5973   54.2548 H       1  UNL         0.1504
     51 H         -12.5130   -2.9902   51.9611 H       1  UNL         0.0624
     52 H         -14.5213   -0.2151   53.3749 H       1  UNL         0.0626
     53 H         -16.1608    1.0856   52.0471 H       1  UNL         0.0623
     54 H         -16.2293    0.8545   49.5682 H       1  UNL         0.0623
     55 H         -14.6398   -0.6807   48.4193 H       1  UNL         0.0623
     56 H         -12.9905   -1.9829   49.7396 H       1  UNL         0.0626
     57 H         -11.9262    0.6389   52.9724 H       1  UNL         0.0643
     58 H          -9.6247    1.6179   52.8694 H       1  UNL         0.0624
     59 H          -7.7040    0.1218   52.2475 H       1  UNL         0.0639
     60 H          -8.1699   -2.3010   51.7523 H       1  UNL         0.0840
@<TRIPOS>BOND
     1     1     2   ar
     2     1     6   ar
     3     1    33    1
     4     2     3   ar
     5     2    34    1
     6     3     4   ar
     7     3    35    1
     8     4     5   ar
     9     4     8    1
    10     5     6   ar
    11     5     7    1
    12     6    36    1
    13     8     9    1
    14     9    10    1
    15     9    37    1
    16     9    38    1
    17    10    11    1
    18    10    39    1
    19    10    40    1
    20    11    12    1
    21    11    16    1
    22    12    13    1
    23    12    41    1
    24    12    42    1
    25    13    14    1
    26    13    43    1
    27    13    44    1
    28    14    15    1
    29    14    17    1
    30    14    45    1
    31    15    16    1
    32    15    46    1
    33    15    47    1
    34    16    48    1
    35    16    49    1
    36    17    18    2
    37    17    19   am
    38    19    20    1
    39    19    50    1
    40    20    21    1
    41    20    27    1
    42    20    51    1
    43    21    22   ar
    44    21    26   ar
    45    22    23   ar
    46    22    52    1
    47    23    24   ar
    48    23    53    1
    49    24    25   ar
    50    24    54    1
    51    25    26   ar
    52    25    55    1
    53    26    56    1
    54    27    28   ar
    55    27    32   ar
    56    28    29   ar
    57    28    57    1
    58    29    30   ar
    59    29    58    1
    60    30    31   ar
    61    30    59    1
    62    31    32   ar
    63    31    60    1
@<TRIPOS>SUBSTRUCTURE
     1 UNL         1 TEMP              0 ****  ****    0 ROOT


##########                                Name:    ZINC001591898574
##########                DOCK_Rotatable_Bonds:                  10
##########                         Heavy_Atoms:                  26
##########                    Molecular_Weight:             383.434
##########                DOCK_Rotatable_Bonds:                  10
##########                       Formal_Charge:         5.96046e-08
##########                     HBond_Acceptors:                  13
##########                        HBond_Donors:                   3
##########                         Heavy_Atoms:                  26
##########                          Grid_Score:          -41.184128
##########                     Grid_vdw_energy:          -39.017704
##########                      Grid_es_energy:           -2.166425
##########           Internal_energy_repulsive:           11.721249

@<TRIPOS>MOLECULE
ZINC001591898574
 47 48 1 0 0
SMALL
USER_CHARGES


@<TRIPOS>ATOM
      1 C1        -14.7873   -3.4165   57.2566 C.3     1  ZINC001591898574   -0.1100
      2 C2        -13.2919   -3.4044   57.0700 C.ar    1  ZINC001591898574    0.2300
      3 C3        -12.4524   -3.2543   58.1595 C.ar    1  ZINC001591898574   -0.2400
      4 C4        -11.0726   -3.2491   57.9408 C.ar    1  ZINC001591898574    0.3000
      5 C5        -10.1305   -3.0916   59.0765 C.2     1  ZINC001591898574    0.2100
      6 N6         -8.9278   -3.6213   59.1813 N.2     1  ZINC001591898574   -0.2500
      7 N7         -8.4303   -3.2496   60.3105 N.pl3   1  ZINC001591898574   -0.2200
      8 N8         -9.2791   -2.5014   60.9244 N.2     1  ZINC001591898574   -0.0400
      9 N9        -10.3346   -2.3782   60.1932 N.2     1  ZINC001591898574   -0.2500
     10 N10       -10.6160   -3.3879   56.6987 N.ar    1  ZINC001591898574   -0.5500
     11 C11       -11.4544   -3.5291   55.6839 C.ar    1  ZINC001591898574    0.5800
     12 N12       -10.9464   -3.6712   54.4043 N.pl3   1  ZINC001591898574   -0.7000
     13 C13       -11.8440   -3.9895   53.2910 C.3     1  ZINC001591898574    0.1400
     14 C14       -12.2684   -2.6960   52.5924 C.3     1  ZINC001591898574   -0.1500
     15 C15       -11.1074   -2.1683   51.7472 C.3     1  ZINC001591898574    0.1200
     16 N16       -10.4404   -1.0767   52.4610 N.am    1  ZINC001591898574   -0.7300
     17 C17        -9.1018   -0.9396   52.3836 C.2     1  ZINC001591898574    0.4900
     18 O18        -8.4496   -1.7191   51.7218 O.2     1  ZINC001591898574   -0.5300
     19 C19        -8.4155    0.1823   53.1194 C.3     1  ZINC001591898574    0.1000
     20 N20        -8.4800    1.4051   52.3152 N.am    1  ZINC001591898574   -0.9800
     21 C21        -9.7348    2.1554   52.2221 C.3     1  ZINC001591898574    0.1000
     22 S22        -7.1343    1.9393   51.5112 S.o2    1  ZINC001591898574    2.6100
     23 C23        -6.7107    0.5812   50.3857 C.3     1  ZINC001591898574   -0.6600
     24 O24        -7.5887    3.0697   50.7799 O.2     1  ZINC001591898574   -0.9500
     25 O25        -6.1489    2.0713   52.5265 O.2     1  ZINC001591898574   -0.9600
     26 N26       -12.7674   -3.5427   55.8626 N.ar    1  ZINC001591898574   -0.5600
     27 H27       -15.1236   -4.4390   57.4289 H       1  ZINC001591898574    0.0900
     28 H28       -15.0515   -2.7979   58.1143 H       1  ZINC001591898574    0.0900
     29 H29       -15.2684   -3.0217   56.3618 H       1  ZINC001591898574    0.0900
     30 H30       -12.8544   -3.1434   59.1557 H       1  ZINC001591898574    0.1600
     31 H31        -7.5536   -3.4951   60.6453 H       1  ZINC001591898574    0.4800
     32 H32        -9.9961   -3.5601   54.2446 H       1  ZINC001591898574    0.4200
     33 H33       -11.3265   -4.6335   52.5799 H       1  ZINC001591898574    0.0700
     34 H34       -12.7266   -4.5035   53.6714 H       1  ZINC001591898574    0.0700
     35 H35       -13.1253   -2.8949   51.9489 H       1  ZINC001591898574    0.0800
     36 H36       -12.5408   -1.9516   53.3406 H       1  ZINC001591898574    0.0800
     37 H37       -10.3947   -2.9729   51.5660 H       1  ZINC001591898574    0.0700
     38 H38       -11.4892   -1.8000   50.7950 H       1  ZINC001591898574    0.0700
     39 H39       -10.9620   -0.4525   52.9893 H       1  ZINC001591898574    0.4000
     40 H40        -8.9138    0.3489   54.0744 H       1  ZINC001591898574    0.1200
     41 H41        -7.3729   -0.0826   53.2950 H       1  ZINC001591898574    0.1300
     42 H42        -9.7753    2.8961   53.0207 H       1  ZINC001591898574    0.0600
     43 H43        -9.7865    2.6587   51.2567 H       1  ZINC001591898574    0.0700
     44 H44       -10.5763    1.4695   52.3197 H       1  ZINC001591898574    0.0700
     45 H45        -7.5440    0.3981   49.7074 H       1  ZINC001591898574    0.1300
     46 H46        -5.8252    0.8498   49.8094 H       1  ZINC001591898574    0.1200
     47 H47        -6.5080   -0.3202   50.9640 H       1  ZINC001591898574    0.1300
@<TRIPOS>BOND
     1     1     2    1
     2     1    27    1
     3     1    28    1
     4     1    29    1
     5     2    26   ar
     6     2     3   ar
     7     3     4   ar
     8     3    30    1
     9     4     5    1
    10     4    10   ar
    11     5     9    1
    12     5     6    2
    13     6     7    1
    14     7     8    1
    15     7    31    1
    16     8     9    2
    17    10    11   ar
    18    11    12    1
    19    11    26   ar
    20    12    13    1
    21    12    32    1
    22    13    14    1
    23    13    33    1
    24    13    34    1
    25    14    15    1
    26    14    35    1
    27    14    36    1
    28    15    16    1
    29    15    37    1
    30    15    38    1
    31    16    17   am
    32    16    39    1
    33    17    18    2
    34    17    19    1
    35    19    20    1
    36    19    40    1
    37    19    41    1
    38    20    21    1
    39    20    22   am
    40    21    42    1
    41    21    43    1
    42    21    44    1
    43    22    23    1
    44    22    24    2
    45    22    25    2
    46    23    45    1
    47    23    46    1
    48    23    47    1
@<TRIPOS>SUBSTRUCTURE
     1 ZINC001591898574        1 TEMP              0 ****  ****    0 ROOT


##########                                Name:    ZINC001039825450
##########                DOCK_Rotatable_Bonds:                   8
##########                         Heavy_Atoms:                  24
##########                    Molecular_Weight:             337.339
##########                DOCK_Rotatable_Bonds:                   8
##########                       Formal_Charge:           0.0100001
##########                     HBond_Acceptors:                  11
##########                        HBond_Donors:                   4
##########                         Heavy_Atoms:                  24
##########                          Grid_Score:          -41.159161
##########                     Grid_vdw_energy:          -38.146469
##########                      Grid_es_energy:           -3.012691
##########           Internal_energy_repulsive:            7.278816

@<TRIPOS>MOLECULE
ZINC001039825450
 43 45 1 0 0
SMALL
USER_CHARGES


@<TRIPOS>ATOM
      1 O1        -10.8910   -0.0735   63.5425 O.2     1  ZINC001039825450   -0.5100
      2 C2         -9.8149    0.1810   63.0445 C.2     1  ZINC001039825450    0.5000
      3 C3         -8.7902    0.9644   63.8240 C.3     1  ZINC001039825450    0.1300
      4 N4         -8.9413    0.6795   65.2530 N.pl3   1  ZINC001039825450   -0.1500
      5 N5         -9.7840    1.2635   66.0293 N.2     1  ZINC001039825450   -0.2800
      6 C6         -9.6534    0.7708   67.2403 C.2     1  ZINC001039825450   -0.0200
      7 C7         -8.6407   -0.1874   67.1562 C.2     1  ZINC001039825450   -0.0200
      8 N8         -8.2532   -0.1925   65.9010 N.2     1  ZINC001039825450   -0.2800
      9 N9         -9.5331   -0.2416   61.7961 N.am    1  ZINC001039825450   -0.7300
     10 C10       -10.5292   -1.0030   61.0383 C.3     1  ZINC001039825450    0.1000
     11 C11        -9.8206   -1.8920   60.0143 C.3     1  ZINC001039825450    0.1100
     12 O12        -8.6670   -1.2330   59.4878 O.3     1  ZINC001039825450   -0.5400
     13 C13        -9.4380   -3.2574   60.6441 C.3     1  ZINC001039825450   -0.1600
     14 C14        -9.4033   -4.1761   59.3972 C.3     1  ZINC001039825450    0.1000
     15 N15       -10.5072   -3.6977   58.5451 N.am    1  ZINC001039825450   -0.6100
     16 C16       -11.1540   -4.4271   57.6146 C.2     1  ZINC001039825450    0.5200
     17 O17       -10.8397   -5.5828   57.4237 O.2     1  ZINC001039825450   -0.5100
     18 C18       -12.2679   -3.8067   56.8112 C.3     1  ZINC001039825450    0.1100
     19 H19       -12.7238   -2.9843   57.3626 H       1  ZINC001039825450    0.1200
     20 C20       -13.3263   -4.8656   56.4462 C.3     1  ZINC001039825450    0.1100
     21 N21       -13.3108   -4.8871   54.9759 N.am    1  ZINC001039825450   -0.7400
     22 C22       -12.4080   -4.0026   54.5324 C.2     1  ZINC001039825450    0.7100
     23 O23       -12.1888   -3.8146   53.3513 O.2     1  ZINC001039825450   -0.5800
     24 N24       -11.7678   -3.3406   55.5093 N.am    1  ZINC001039825450   -0.7200
     25 C25       -10.7858   -2.2932   58.8789 C.3     1  ZINC001039825450    0.1200
     26 H26        -7.7898    0.6772   63.5001 H       1  ZINC001039825450    0.1400
     27 H27        -8.9370    2.0301   63.6485 H       1  ZINC001039825450    0.1400
     28 H28       -10.2139    1.0499   68.1202 H       1  ZINC001039825450    0.2000
     29 H29        -8.2578   -0.8015   67.9579 H       1  ZINC001039825450    0.2000
     30 H30        -8.6709   -0.0414   61.3993 H       1  ZINC001039825450    0.4000
     31 H31       -11.1073   -1.6254   61.7213 H       1  ZINC001039825450    0.0900
     32 H32       -11.1969   -0.3141   60.5210 H       1  ZINC001039825450    0.0900
     33 H33        -7.9947   -1.0268   60.1517 H       1  ZINC001039825450    0.3800
     34 H34        -8.4588   -3.2075   61.1199 H       1  ZINC001039825450    0.0900
     35 H35       -10.1983   -3.5879   61.3518 H       1  ZINC001039825450    0.0900
     36 H36        -8.4509   -4.0740   58.8772 H       1  ZINC001039825450    0.0800
     37 H37        -9.5695   -5.2139   59.6860 H       1  ZINC001039825450    0.0800
     38 H38       -13.0462   -5.8402   56.8461 H       1  ZINC001039825450    0.0900
     39 H39       -14.3082   -4.5679   56.8142 H       1  ZINC001039825450    0.1000
     40 H40       -13.8663   -5.4520   54.4162 H       1  ZINC001039825450    0.4400
     41 H41       -11.0842   -2.6654   55.3761 H       1  ZINC001039825450    0.4400
     42 H42       -11.8173   -2.1899   59.2155 H       1  ZINC001039825450    0.0900
     43 H43       -10.6136   -1.6635   58.0061 H       1  ZINC001039825450    0.0900
@<TRIPOS>BOND
     1     1     2    2
     2     2     3    1
     3     2     9   am
     4     3     4    1
     5     3    26    1
     6     3    27    1
     7     4     8    1
     8     4     5    1
     9     5     6    2
    10     6     7    1
    11     6    28    1
    12     7     8    2
    13     7    29    1
    14     9    10    1
    15     9    30    1
    16    10    11    1
    17    10    31    1
    18    10    32    1
    19    11    25    1
    20    11    12    1
    21    11    13    1
    22    12    33    1
    23    13    14    1
    24    13    34    1
    25    13    35    1
    26    14    15    1
    27    14    36    1
    28    14    37    1
    29    15    16   am
    30    15    25    1
    31    16    17    2
    32    16    18    1
    33    18    19    1
    34    18    24    1
    35    18    20    1
    36    20    21    1
    37    20    38    1
    38    20    39    1
    39    21    22   am
    40    21    40    1
    41    22    23    2
    42    22    24   am
    43    24    41    1
    44    25    42    1
    45    25    43    1
@<TRIPOS>SUBSTRUCTURE
     1 ZINC001039825450        1 TEMP              0 ****  ****    0 ROOT


##########                                Name:    ZINC000045927156
##########                DOCK_Rotatable_Bonds:                   7
##########                         Heavy_Atoms:                  30
##########                    Molecular_Weight:             418.522
##########                DOCK_Rotatable_Bonds:                   7
##########                       Formal_Charge:           0.0200001
##########                     HBond_Acceptors:                   8
##########                        HBond_Donors:                   1
##########                         Heavy_Atoms:                  30
##########                          Grid_Score:          -40.902740
##########                     Grid_vdw_energy:          -39.214596
##########                      Grid_es_energy:           -1.688145
##########           Internal_energy_repulsive:           15.195845

@<TRIPOS>MOLECULE
ZINC000045927156
 52 56 1 0 0
SMALL
USER_CHARGES


@<TRIPOS>ATOM
      1 O1        -10.6152   -3.4572   54.6600 O.2     1  ZINC000045927156   -0.5800
      2 C2        -11.6845   -2.9384   54.4031 C.2     1  ZINC000045927156    0.7300
      3 N3        -11.7633   -1.9980   53.4409 N.am    1  ZINC000045927156   -0.7400
      4 C4        -10.5596   -1.5966   52.7086 C.3     1  ZINC000045927156    0.1700
      5 C5        -10.6556   -0.1369   52.3461 C.ar    1  ZINC000045927156   -0.0700
      6 C6        -11.8933    0.4485   52.1580 C.ar    1  ZINC000045927156   -0.1000
      7 C7        -11.9814    1.7875   51.8254 C.ar    1  ZINC000045927156   -0.1100
      8 C8        -10.8316    2.5409   51.6816 C.ar    1  ZINC000045927156   -0.1100
      9 C9         -9.5934    1.9555   51.8707 C.ar    1  ZINC000045927156   -0.1000
     10 C10        -9.5055    0.6179   52.2073 C.ar    1  ZINC000045927156   -0.1000
     11 C11        -8.1559   -0.0202   52.4135 C.3     1  ZINC000045927156    0.1700
     12 N12        -7.1548    0.6839   51.6084 N.pl3   1  ZINC000045927156   -0.3800
     13 C13        -6.3991    1.7267   51.9939 C.2     1  ZINC000045927156    0.2500
     14 N14        -5.6320    2.0655   50.9896 N.2     1  ZINC000045927156   -0.5400
     15 C15        -5.8683    1.2656   49.9505 C.2     1  ZINC000045927156    0.2000
     16 N16        -6.7894    0.3995   50.2824 N.2     1  ZINC000045927156   -0.3100
     17 N17       -12.7917   -3.3078   55.0768 N.am    1  ZINC000045927156   -0.6200
     18 C18       -14.1468   -2.7669   54.8651 C.3     1  ZINC000045927156    0.1000
     19 C19       -15.1007   -3.8773   55.3718 C.3     1  ZINC000045927156   -0.1300
     20 C20       -14.3202   -4.4233   56.5965 C.3     1  ZINC000045927156   -0.1200
     21 C21       -12.8497   -4.3214   56.1402 C.3     1  ZINC000045927156    0.2300
     22 H22       -12.5122   -5.2852   55.7591 H       1  ZINC000045927156    0.1000
     23 C23       -11.9824   -3.8956   57.2967 C.2     1  ZINC000045927156    0.0900
     24 N24       -12.1986   -2.8593   58.0150 N.2     1  ZINC000045927156   -0.4500
     25 C25       -11.3393   -2.5994   59.0189 C.ar    1  ZINC000045927156    0.0800
     26 C26       -11.3379   -1.5428   59.9514 C.ar    1  ZINC000045927156   -0.0700
     27 C27       -10.3640   -1.4617   60.9003 C.ar    1  ZINC000045927156   -0.1100
     28 C28        -9.3576   -2.4146   60.9682 C.ar    1  ZINC000045927156   -0.1000
     29 C29        -9.3339   -3.4580   60.0701 C.ar    1  ZINC000045927156   -0.0700
     30 C30       -10.3215   -3.5571   59.0928 C.ar    1  ZINC000045927156   -0.1800
     31 S31       -10.5933   -4.7395   57.8167 S.3     1  ZINC000045927156    0.1200
     32 H32       -12.6171   -1.5871   53.2332 H       1  ZINC000045927156    0.3900
     33 H33        -9.6824   -1.7586   53.3349 H       1  ZINC000045927156    0.1000
     34 H34       -10.4719   -2.1916   51.7996 H       1  ZINC000045927156    0.0700
     35 H35       -12.7918   -0.1402   52.2704 H       1  ZINC000045927156    0.1300
     36 H36       -12.9485    2.2448   51.6777 H       1  ZINC000045927156    0.1300
     37 H37       -10.9003    3.5867   51.4211 H       1  ZINC000045927156    0.1300
     38 H38        -8.6949    2.5441   51.7579 H       1  ZINC000045927156    0.1300
     39 H39        -7.8827    0.0401   53.4670 H       1  ZINC000045927156    0.1100
     40 H40        -8.1979   -1.0657   52.1082 H       1  ZINC000045927156    0.1000
     41 H41        -6.4217    2.2023   52.9632 H       1  ZINC000045927156    0.2200
     42 H42        -5.3755    1.3210   48.9911 H       1  ZINC000045927156    0.2200
     43 H43       -14.2856   -1.8540   55.4443 H       1  ZINC000045927156    0.0700
     44 H44       -14.3173   -2.5747   53.8057 H       1  ZINC000045927156    0.0800
     45 H45       -16.0606   -3.4594   55.6748 H       1  ZINC000045927156    0.0900
     46 H46       -15.2345   -4.6519   54.6167 H       1  ZINC000045927156    0.0800
     47 H47       -14.4990   -3.8037   57.4753 H       1  ZINC000045927156    0.0900
     48 H48       -14.5893   -5.4609   56.7939 H       1  ZINC000045927156    0.0900
     49 H49       -12.1136   -0.7923   59.9132 H       1  ZINC000045927156    0.1300
     50 H50       -10.3751   -0.6460   61.6081 H       1  ZINC000045927156    0.1400
     51 H51        -8.5920   -2.3374   61.7260 H       1  ZINC000045927156    0.1400
     52 H52        -8.5498   -4.1988   60.1231 H       1  ZINC000045927156    0.1300
@<TRIPOS>BOND
     1     1     2    2
     2     2     3   am
     3     2    17   am
     4     3     4    1
     5     3    32    1
     6     4     5    1
     7     4    33    1
     8     4    34    1
     9     5    10   ar
    10     5     6   ar
    11     6     7   ar
    12     6    35    1
    13     7     8   ar
    14     7    36    1
    15     8     9   ar
    16     8    37    1
    17     9    10   ar
    18     9    38    1
    19    10    11    1
    20    11    12    1
    21    11    39    1
    22    11    40    1
    23    12    16    1
    24    12    13    1
    25    13    14    2
    26    13    41    1
    27    14    15    1
    28    15    16    2
    29    15    42    1
    30    17    21    1
    31    17    18    1
    32    18    19    1
    33    18    43    1
    34    18    44    1
    35    19    20    1
    36    19    45    1
    37    19    46    1
    38    20    21    1
    39    20    47    1
    40    20    48    1
    41    21    22    1
    42    21    23    1
    43    23    31    1
    44    23    24    2
    45    24    25    1
    46    25    30   ar
    47    25    26   ar
    48    26    27   ar
    49    26    49    1
    50    27    28   ar
    51    27    50    1
    52    28    29   ar
    53    28    51    1
    54    29    30   ar
    55    29    52    1
    56    30    31    1
@<TRIPOS>SUBSTRUCTURE
     1 ZINC000045927156        1 TEMP              0 ****  ****    0 ROOT


##########                                Name:    ZINC000011620562
##########                DOCK_Rotatable_Bonds:                   9
##########                         Heavy_Atoms:                  29
##########                    Molecular_Weight:             417.448
##########                DOCK_Rotatable_Bonds:                   9
##########                       Formal_Charge:           0.0299999
##########                     HBond_Acceptors:                  12
##########                        HBond_Donors:                   1
##########                         Heavy_Atoms:                  29
##########                          Grid_Score:          -40.697048
##########                     Grid_vdw_energy:          -39.866951
##########                      Grid_es_energy:           -0.830097
##########           Internal_energy_repulsive:            7.834401

@<TRIPOS>MOLECULE
ZINC000011620562
 48 50 1 0 0
SMALL
USER_CHARGES


@<TRIPOS>ATOM
      1 C1         -8.7925   -0.4827   62.9967 C.3     1  ZINC000011620562    0.0400
      2 O2         -8.5191   -1.5687   62.0724 O.3     1  ZINC000011620562   -0.3500
      3 C3         -9.5429   -2.0002   61.3191 C.2     1  ZINC000011620562    0.4600
      4 O4        -10.6418   -1.5183   61.4602 O.2     1  ZINC000011620562   -0.5000
      5 C5         -9.3215   -3.0855   60.2973 C.3     1  ZINC000011620562    0.1300
      6 N6        -10.3373   -2.9817   59.2468 N.am    1  ZINC000011620562   -0.7200
      7 C7        -10.6676   -4.0671   58.5191 C.2     1  ZINC000011620562    0.5400
      8 O8        -10.1249   -5.1300   58.7351 O.2     1  ZINC000011620562   -0.5200
      9 C9        -11.7113   -3.9599   57.4373 C.3     1  ZINC000011620562   -0.1600
     10 S10       -10.8984   -3.7569   55.8330 S.3     1  ZINC000011620562    0.1400
     11 C11       -12.2263   -3.0674   54.9023 C.2     1  ZINC000011620562    0.2100
     12 N12       -13.4460   -3.5514   54.8030 N.2     1  ZINC000011620562   -0.3400
     13 N13       -14.1662   -2.8040   54.0469 N.2     1  ZINC000011620562   -0.0300
     14 N14       -13.4757   -1.8054   53.6139 N.2     1  ZINC000011620562   -0.0800
     15 N15       -12.1860   -1.9350   54.1584 N.pl3   1  ZINC000011620562   -0.2600
     16 C16       -11.0864   -1.0766   53.9664 C.2     1  ZINC000011620562   -0.1300
     17 C17       -10.6470   -0.1401   54.8374 C.2     1  ZINC000011620562    0.2500
     18 C18       -11.2518    0.1651   56.1835 C.3     1  ZINC000011620562   -0.1100
     19 N19        -9.5592    0.4832   54.2879 N.pl3   1  ZINC000011620562   -0.3700
     20 C20        -8.7834    1.5605   54.9072 C.3     1  ZINC000011620562    0.0900
     21 N21        -9.3152   -0.0868   53.0316 N.am    1  ZINC000011620562   -0.3600
     22 C22        -8.2911    0.2713   52.1492 C.ar    1  ZINC000011620562    0.1400
     23 C23        -7.4205   -0.6960   51.6640 C.ar    1  ZINC000011620562   -0.1300
     24 C24        -6.4106   -0.3391   50.7922 C.ar    1  ZINC000011620562   -0.1000
     25 C25        -6.2657    0.9797   50.4023 C.ar    1  ZINC000011620562   -0.1100
     26 C26        -7.1306    1.9453   50.8838 C.ar    1  ZINC000011620562   -0.1000
     27 C27        -8.1461    1.5941   51.7513 C.ar    1  ZINC000011620562   -0.1000
     28 C28       -10.2406   -1.0462   52.8274 C.2     1  ZINC000011620562    0.5500
     29 O29       -10.3375   -1.7534   51.8409 O.2     1  ZINC000011620562   -0.5000
     30 H30        -9.5651   -0.7910   63.7011 H       1  ZINC000011620562    0.0700
     31 H31        -7.8827   -0.2319   63.5420 H       1  ZINC000011620562    0.1100
     32 H32        -9.1352    0.3899   62.4406 H       1  ZINC000011620562    0.0700
     33 H33        -8.3307   -2.9734   59.8569 H       1  ZINC000011620562    0.1200
     34 H34        -9.3964   -4.0599   60.7802 H       1  ZINC000011620562    0.1200
     35 H35       -10.7723   -2.1319   59.0750 H       1  ZINC000011620562    0.4200
     36 H36       -12.3169   -4.8662   57.4257 H       1  ZINC000011620562    0.1400
     37 H37       -12.3500   -3.0985   57.6328 H       1  ZINC000011620562    0.1400
     38 H38       -12.1074   -0.4884   56.3541 H       1  ZINC000011620562    0.1000
     39 H39       -10.5074   -0.0003   56.9623 H       1  ZINC000011620562    0.1000
     40 H40       -11.5782    1.2048   56.2078 H       1  ZINC000011620562    0.1000
     41 H41        -9.2265    1.8211   55.8683 H       1  ZINC000011620562    0.1100
     42 H42        -7.7564    1.2280   55.0587 H       1  ZINC000011620562    0.0900
     43 H43        -8.7900    2.4341   54.2553 H       1  ZINC000011620562    0.0900
     44 H44        -7.5329   -1.7262   51.9685 H       1  ZINC000011620562    0.1300
     45 H45        -5.7330   -1.0908   50.4149 H       1  ZINC000011620562    0.1300
     46 H46        -5.4751    1.2561   49.7204 H       1  ZINC000011620562    0.1300
     47 H47        -7.0142    2.9744   50.5778 H       1  ZINC000011620562    0.1400
     48 H48        -8.8214    2.3487   52.1268 H       1  ZINC000011620562    0.1400
@<TRIPOS>BOND
     1     1     2    1
     2     1    30    1
     3     1    31    1
     4     1    32    1
     5     2     3    1
     6     3     4    2
     7     3     5    1
     8     5     6    1
     9     5    33    1
    10     5    34    1
    11     6     7   am
    12     6    35    1
    13     7     8    2
    14     7     9    1
    15     9    10    1
    16     9    36    1
    17     9    37    1
    18    10    11    1
    19    11    15    1
    20    11    12    2
    21    12    13    1
    22    13    14    2
    23    14    15    1
    24    15    16    1
    25    16    28    1
    26    16    17    2
    27    17    18    1
    28    17    19    1
    29    18    38    1
    30    18    39    1
    31    18    40    1
    32    19    20    1
    33    19    21    1
    34    20    41    1
    35    20    42    1
    36    20    43    1
    37    21    22    1
    38    21    28   am
    39    22    27   ar
    40    22    23   ar
    41    23    24   ar
    42    23    44    1
    43    24    25   ar
    44    24    45    1
    45    25    26   ar
    46    25    46    1
    47    26    27   ar
    48    26    47    1
    49    27    48    1
    50    28    29    2
@<TRIPOS>SUBSTRUCTURE
     1 ZINC000011620562        1 TEMP              0 ****  ****    0 ROOT


##########                                Name:    ZINC000058174787
##########                DOCK_Rotatable_Bonds:                   9
##########                         Heavy_Atoms:                  27
##########                    Molecular_Weight:             413.882
##########                DOCK_Rotatable_Bonds:                   9
##########                       Formal_Charge:           0.0200002
##########                     HBond_Acceptors:                  10
##########                        HBond_Donors:                   1
##########                         Heavy_Atoms:                  27
##########                          Grid_Score:          -40.551033
##########                     Grid_vdw_energy:          -41.299030
##########                      Grid_es_energy:            0.747998
##########           Internal_energy_repulsive:            9.225106

@<TRIPOS>MOLECULE
ZINC000058174787
 47 48 1 0 0
SMALL
USER_CHARGES


@<TRIPOS>ATOM
      1 C1         -5.6471    2.4613   52.1547 C.3     1  ZINC000058174787   -0.0700
      2 C2         -6.8809    1.6109   52.3154 C.2     1  ZINC000058174787    0.2100
      3 N3         -7.8370    1.8136   53.1802 N.2     1  ZINC000058174787   -0.4200
      4 C4         -8.7716    0.8621   53.0373 C.2     1  ZINC000058174787   -0.5600
      5 S5        -10.2524    0.7154   53.9807 S.o2    1  ZINC000058174787    2.7400
      6 O6         -9.8980    0.9900   55.3291 O.2     1  ZINC000058174787   -0.9500
      7 O7        -11.2506    1.4409   53.2763 O.2     1  ZINC000058174787   -0.9600
      8 N8        -10.7090   -0.8758   53.9321 N.am    1  ZINC000058174787   -1.1100
      9 C9        -11.0015   -1.5149   52.6468 C.3     1  ZINC000058174787    0.1300
     10 C10       -12.2523   -2.3855   52.7832 C.3     1  ZINC000058174787   -0.1200
     11 C11       -11.8957   -3.6710   53.4839 C.2     1  ZINC000058174787    0.4700
     12 O12       -11.3297   -4.5514   52.8802 O.2     1  ZINC000058174787   -0.5000
     13 O13       -12.2067   -3.8381   54.7790 O.3     1  ZINC000058174787   -0.3300
     14 C14       -13.2207   -4.8295   55.0908 C.3     1  ZINC000058174787    0.0400
     15 H15       -13.0201   -5.7429   54.5311 H       1  ZINC000058174787    0.1200
     16 C16       -14.5989   -4.2878   54.7061 C.3     1  ZINC000058174787   -0.1700
     17 C17       -13.1930   -5.1290   56.5675 C.2     1  ZINC000058174787    0.4000
     18 O18       -14.0061   -5.8902   57.0472 O.2     1  ZINC000058174787   -0.4200
     19 C19       -12.1797   -4.4982   57.4271 C.ar    1  ZINC000058174787   -0.1600
     20 C20       -12.3840   -3.2057   57.9221 C.ar    1  ZINC000058174787   -0.0600
     21 C21       -11.4303   -2.6212   58.7272 C.ar    1  ZINC000058174787   -0.1200
     22 C22       -10.2715   -3.3105   59.0467 C.ar    1  ZINC000058174787    0.0000
     23 Cl23       -9.0761   -2.5665   60.0621 Cl      1  ZINC000058174787   -0.0500
     24 C24       -10.0625   -4.5909   58.5600 C.ar    1  ZINC000058174787   -0.1200
     25 C25       -11.0097   -5.1901   57.7581 C.ar    1  ZINC000058174787   -0.0400
     26 C26        -8.3796    0.0386   52.0464 C.2     1  ZINC000058174787    0.0700
     27 N27        -7.1829    0.5162   51.5845 N.pl3   1  ZINC000058174787   -0.4500
     28 C28        -6.3762   -0.0579   50.5048 C.3     1  ZINC000058174787    0.0600
     29 H29        -5.8452    3.2568   51.4364 H       1  ZINC000058174787    0.0900
     30 H30        -5.3795    2.8987   53.1166 H       1  ZINC000058174787    0.1000
     31 H31        -4.8243    1.8435   51.7949 H       1  ZINC000058174787    0.0800
     32 H32       -10.7826   -1.3845   54.7547 H       1  ZINC000058174787    0.4200
     33 H33       -11.1728   -0.7487   51.8906 H       1  ZINC000058174787    0.0900
     34 H34       -10.1569   -2.1365   52.3494 H       1  ZINC000058174787    0.0900
     35 H35       -13.0050   -1.8519   53.3636 H       1  ZINC000058174787    0.1200
     36 H36       -12.6488   -2.6096   51.7928 H       1  ZINC000058174787    0.1200
     37 H37       -14.7995   -3.3744   55.2659 H       1  ZINC000058174787    0.0800
     38 H38       -14.6189   -4.0712   53.6380 H       1  ZINC000058174787    0.0800
     39 H39       -15.3601   -5.0320   54.9401 H       1  ZINC000058174787    0.0800
     40 H40       -13.2864   -2.6672   57.6734 H       1  ZINC000058174787    0.1400
     41 H41       -11.5865   -1.6234   59.1098 H       1  ZINC000058174787    0.1400
     42 H42        -9.1569   -5.1222   58.8131 H       1  ZINC000058174787    0.1400
     43 H43       -10.8456   -6.1882   57.3798 H       1  ZINC000058174787    0.1500
     44 H44        -8.9098   -0.8294   51.6832 H       1  ZINC000058174787    0.1900
     45 H45        -6.6736    0.3850   49.5542 H       1  ZINC000058174787    0.0900
     46 H46        -5.3222    0.1503   50.6886 H       1  ZINC000058174787    0.1000
     47 H47        -6.5326   -1.1359   50.4681 H       1  ZINC000058174787    0.0900
@<TRIPOS>BOND
     1     1     2    1
     2     1    29    1
     3     1    30    1
     4     1    31    1
     5     2    27    1
     6     2     3    2
     7     3     4    1
     8     4     5    1
     9     4    26    2
    10     5     6    2
    11     5     7    2
    12     5     8   am
    13     8     9    1
    14     8    32    1
    15     9    10    1
    16     9    33    1
    17     9    34    1
    18    10    11    1
    19    10    35    1
    20    10    36    1
    21    11    12    2
    22    11    13    1
    23    13    14    1
    24    14    15    1
    25    14    16    1
    26    14    17    1
    27    16    37    1
    28    16    38    1
    29    16    39    1
    30    17    18    2
    31    17    19    1
    32    19    25   ar
    33    19    20   ar
    34    20    21   ar
    35    20    40    1
    36    21    22   ar
    37    21    41    1
    38    22    23    1
    39    22    24   ar
    40    24    25   ar
    41    24    42    1
    42    25    43    1
    43    26    27    1
    44    26    44    1
    45    27    28    1
    46    28    45    1
    47    28    46    1
    48    28    47    1
@<TRIPOS>SUBSTRUCTURE
     1 ZINC000058174787        1 TEMP              0 ****  ****    0 ROOT


##########                                Name:    ZINC000298969660
##########                DOCK_Rotatable_Bonds:                  10
##########                         Heavy_Atoms:                  29
##########                    Molecular_Weight:             397.474
##########                DOCK_Rotatable_Bonds:                  10
##########                       Formal_Charge:          -0.0100008
##########                     HBond_Acceptors:                   7
##########                        HBond_Donors:                   2
##########                         Heavy_Atoms:                  29
##########                          Grid_Score:          -40.475788
##########                     Grid_vdw_energy:          -40.258785
##########                      Grid_es_energy:           -0.217003
##########           Internal_energy_repulsive:           22.839581

@<TRIPOS>MOLECULE
ZINC000298969660
 56 58 1 0 0
SMALL
USER_CHARGES


@<TRIPOS>ATOM
      1 C1         -9.2532   -3.6020   60.1421 C.3     1  ZINC000298969660    0.0800
      2 N2         -9.6036   -2.4930   59.2515 N.am    1  ZINC000298969660   -0.6300
      3 C3         -9.1026   -1.1446   59.5287 C.3     1  ZINC000298969660    0.1400
      4 C4        -10.1984   -0.3236   60.2114 C.3     1  ZINC000298969660    0.0700
      5 H5         -9.7731    0.6048   60.5922 H       1  ZINC000298969660    0.0500
      6 C6        -10.7906   -1.1277   61.3719 C.3     1  ZINC000298969660   -0.1500
      7 C7        -11.9269   -0.3243   62.0120 C.3     1  ZINC000298969660   -0.1200
      8 C8        -12.9709    0.0053   60.9407 C.3     1  ZINC000298969660   -0.1600
      9 C9        -12.2945    0.7655   59.7968 C.3     1  ZINC000298969660    0.0600
     10 O10       -11.2280   -0.0241   59.2667 O.3     1  ZINC000298969660   -0.3600
     11 C11       -10.3869   -2.7132   58.1770 C.2     1  ZINC000298969660    0.7100
     12 O12       -10.6766   -1.7931   57.4370 O.2     1  ZINC000298969660   -0.5400
     13 N13       -10.8492   -3.9535   57.9230 N.am    1  ZINC000298969660   -0.6900
     14 C14       -11.6625   -4.1821   56.8074 C.ar    1  ZINC000298969660    0.2000
     15 C15       -12.8677   -4.8570   56.9521 C.ar    1  ZINC000298969660   -0.1800
     16 C16       -13.6705   -5.0832   55.8506 C.ar    1  ZINC000298969660   -0.0600
     17 C17       -13.2770   -4.6387   54.6029 C.ar    1  ZINC000298969660   -0.2300
     18 C18       -12.0735   -3.9636   54.4523 C.ar    1  ZINC000298969660    0.1500
     19 O19       -11.6877   -3.5274   53.2245 O.3     1  ZINC000298969660   -0.2900
     20 C20       -12.2554   -2.2994   52.7642 C.3     1  ZINC000298969660    0.0400
     21 C21       -11.1513   -1.3293   52.4310 C.2     1  ZINC000298969660    0.5100
     22 O22       -11.4214   -0.2252   52.0080 O.2     1  ZINC000298969660   -0.4900
     23 N23        -9.8639   -1.6888   52.6031 N.am    1  ZINC000298969660   -0.6700
     24 C24        -8.8387   -0.7881   52.2938 C.ar    1  ZINC000298969660    0.1400
     25 C25        -8.7822    0.4463   52.9275 C.ar    1  ZINC000298969660   -0.1400
     26 C26        -7.7691    1.3331   52.6199 C.ar    1  ZINC000298969660   -0.1000
     27 C27        -6.8119    0.9933   51.6816 C.ar    1  ZINC000298969660   -0.1300
     28 C28        -6.8656   -0.2349   51.0484 C.ar    1  ZINC000298969660   -0.1000
     29 C29        -7.8724   -1.1289   51.3564 C.ar    1  ZINC000298969660   -0.1200
     30 C30       -11.2684   -3.7299   55.5558 C.ar    1  ZINC000298969660   -0.1500
     31 H31       -10.0003   -3.6842   60.9316 H       1  ZINC000298969660    0.0600
     32 H32        -9.2236   -4.5306   59.5719 H       1  ZINC000298969660    0.0700
     33 H33        -8.2749   -3.4168   60.5856 H       1  ZINC000298969660    0.0800
     34 H34        -8.2339   -1.2074   60.1842 H       1  ZINC000298969660    0.1000
     35 H35        -8.8176   -0.6633   58.5932 H       1  ZINC000298969660    0.0900
     36 H36       -11.1799   -2.0746   60.9978 H       1  ZINC000298969660    0.0800
     37 H37       -10.0164   -1.3190   62.1149 H       1  ZINC000298969660    0.0700
     38 H38       -12.3899   -0.9142   62.8031 H       1  ZINC000298969660    0.0700
     39 H39       -11.5292    0.6005   62.4301 H       1  ZINC000298969660    0.0600
     40 H40       -13.4042   -0.9187   60.5578 H       1  ZINC000298969660    0.0700
     41 H41       -13.7560    0.6241   61.3753 H       1  ZINC000298969660    0.0700
     42 H42       -13.0238    0.9653   59.0118 H       1  ZINC000298969660    0.0900
     43 H43       -11.8968    1.7084   60.1722 H       1  ZINC000298969660    0.0400
     44 H44       -10.6181   -4.6876   58.5134 H       1  ZINC000298969660    0.4100
     45 H45       -13.1774   -5.2054   57.9263 H       1  ZINC000298969660    0.1300
     46 H46       -14.6070   -5.6087   55.9649 H       1  ZINC000298969660    0.1300
     47 H47       -13.9066   -4.8169   53.7437 H       1  ZINC000298969660    0.1300
     48 H48       -12.8549   -2.4876   51.8735 H       1  ZINC000298969660    0.1000
     49 H49       -12.8875   -1.8763   53.5449 H       1  ZINC000298969660    0.1000
     50 H50        -9.6479   -2.5718   52.9414 H       1  ZINC000298969660    0.4100
     51 H51        -9.5300    0.7126   53.6599 H       1  ZINC000298969660    0.1300
     52 H52        -7.7247    2.2932   53.1125 H       1  ZINC000298969660    0.1300
     53 H53        -6.0209    1.6886   51.4426 H       1  ZINC000298969660    0.1200
     54 H54        -6.1169   -0.4971   50.3156 H       1  ZINC000298969660    0.1300
     55 H55        -7.9138   -2.0879   50.8615 H       1  ZINC000298969660    0.1300
     56 H56       -10.3317   -3.2049   55.4405 H       1  ZINC000298969660    0.1500
@<TRIPOS>BOND
     1     1     2    1
     2     1    31    1
     3     1    32    1
     4     1    33    1
     5     2     3    1
     6     2    11   am
     7     3     4    1
     8     3    34    1
     9     3    35    1
    10     4     5    1
    11     4    10    1
    12     4     6    1
    13     6     7    1
    14     6    36    1
    15     6    37    1
    16     7     8    1
    17     7    38    1
    18     7    39    1
    19     8     9    1
    20     8    40    1
    21     8    41    1
    22     9    10    1
    23     9    42    1
    24     9    43    1
    25    11    12    2
    26    11    13   am
    27    13    14    1
    28    13    44    1
    29    14    30   ar
    30    14    15   ar
    31    15    16   ar
    32    15    45    1
    33    16    17   ar
    34    16    46    1
    35    17    18   ar
    36    17    47    1
    37    18    19    1
    38    18    30   ar
    39    19    20    1
    40    20    21    1
    41    20    48    1
    42    20    49    1
    43    21    22    2
    44    21    23   am
    45    23    24    1
    46    23    50    1
    47    24    29   ar
    48    24    25   ar
    49    25    26   ar
    50    25    51    1
    51    26    27   ar
    52    26    52    1
    53    27    28   ar
    54    27    53    1
    55    28    29   ar
    56    28    54    1
    57    29    55    1
    58    30    56    1
@<TRIPOS>SUBSTRUCTURE
     1 ZINC000298969660        1 TEMP              0 ****  ****    0 ROOT


##########                                Name:    ZINC000467185792
##########                DOCK_Rotatable_Bonds:                   9
##########                         Heavy_Atoms:                  29
##########                    Molecular_Weight:             412.513
##########                DOCK_Rotatable_Bonds:                   9
##########                       Formal_Charge:                0.04
##########                     HBond_Acceptors:                   8
##########                        HBond_Donors:                   2
##########                         Heavy_Atoms:                  29
##########                          Grid_Score:          -40.358917
##########                     Grid_vdw_energy:          -40.009983
##########                      Grid_es_energy:           -0.348936
##########           Internal_energy_repulsive:           21.256462

@<TRIPOS>MOLECULE
ZINC000467185792
 53 55 1 0 0
SMALL
USER_CHARGES


@<TRIPOS>ATOM
      1 C1         -3.2548    1.3555   48.9788 C.3     1  ZINC000467185792   -0.1500
      2 C2         -4.0192    1.8584   50.2050 C.3     1  ZINC000467185792   -0.1200
      3 C3         -5.2168    0.9437   50.4698 C.3     1  ZINC000467185792    0.0600
      4 O4         -5.9721    1.4544   51.5701 O.3     1  ZINC000467185792   -0.3100
      5 C5         -7.0164    0.7008   52.0045 C.ar    1  ZINC000467185792    0.1400
      6 C6         -7.2741   -0.5299   51.4165 C.ar    1  ZINC000467185792   -0.2100
      7 C7         -8.3328   -1.2974   51.8554 C.ar    1  ZINC000467185792   -0.0400
      8 C8         -9.1443   -0.8360   52.8906 C.ar    1  ZINC000467185792   -0.0600
      9 C9        -10.2834   -1.6591   53.3653 C.2     1  ZINC000467185792    0.1400
     10 C10       -10.8065   -2.6553   52.6287 C.2     1  ZINC000467185792   -0.3000
     11 S11       -12.1295   -3.3788   53.5406 S.3     1  ZINC000467185792    0.2000
     12 C12       -11.8439   -2.2436   54.8564 C.2     1  ZINC000467185792    0.2800
     13 N13       -12.5643   -2.1916   56.0419 N.am    1  ZINC000467185792   -0.6100
     14 C14       -12.5302   -3.2325   56.8974 C.2     1  ZINC000467185792    0.5900
     15 O15       -11.8683   -4.2173   56.6307 O.2     1  ZINC000467185792   -0.4900
     16 C16       -13.2949   -3.1773   58.1558 C.2     1  ZINC000467185792   -0.2400
     17 C17       -12.9139   -2.3346   59.1981 C.2     1  ZINC000467185792    0.0800
     18 C18       -11.7026   -1.4465   59.0746 C.3     1  ZINC000467185792   -0.1200
     19 C19       -10.4503   -2.2351   59.4631 C.3     1  ZINC000467185792   -0.1400
     20 C20       -13.6902   -2.3372   60.3633 C.2     1  ZINC000467185792    0.0600
     21 C21       -13.3128   -1.4401   61.5140 C.3     1  ZINC000467185792   -0.0600
     22 C22       -14.2703   -1.6801   62.6830 C.3     1  ZINC000467185792   -0.1500
     23 N23       -14.7381   -3.1092   60.4618 N.2     1  ZINC000467185792   -0.1800
     24 N24       -15.1165   -3.8962   59.5224 N.am    1  ZINC000467185792   -0.4300
     25 C25       -14.4551   -3.9784   58.3520 C.2     1  ZINC000467185792    0.5000
     26 O26       -14.8383   -4.7359   57.4772 O.2     1  ZINC000467185792   -0.5300
     27 N27       -10.8521   -1.4670   54.5471 N.2     1  ZINC000467185792   -0.5000
     28 C28        -8.8828    0.4004   53.4790 C.ar    1  ZINC000467185792   -0.0600
     29 C29        -7.8194    1.1607   53.0391 C.ar    1  ZINC000467185792   -0.1500
     30 H30        -3.9151    1.3611   48.1116 H       1  ZINC000467185792    0.0600
     31 H31        -2.4017    2.0072   48.7900 H       1  ZINC000467185792    0.0700
     32 H32        -2.9031    0.3401   49.1610 H       1  ZINC000467185792    0.0600
     33 H33        -3.3590    1.8528   51.0722 H       1  ZINC000467185792    0.0700
     34 H34        -4.3709    2.8739   50.0226 H       1  ZINC000467185792    0.0700
     35 H35        -5.8482    0.9055   49.5821 H       1  ZINC000467185792    0.0600
     36 H36        -4.8624   -0.0594   50.7070 H       1  ZINC000467185792    0.0600
     37 H37        -6.6452   -0.8867   50.6143 H       1  ZINC000467185792    0.1300
     38 H38        -8.5330   -2.2548   51.3972 H       1  ZINC000467185792    0.1300
     39 H39       -10.4734   -2.9594   51.6473 H       1  ZINC000467185792    0.1800
     40 H40       -13.0922   -1.4061   56.2547 H       1  ZINC000467185792    0.4400
     41 H41       -11.6092   -1.1005   58.0452 H       1  ZINC000467185792    0.0900
     42 H42       -11.8119   -0.5885   59.7379 H       1  ZINC000467185792    0.1300
     43 H43       -10.5436   -2.5812   60.4924 H       1  ZINC000467185792    0.0600
     44 H44       -10.3409   -3.0932   58.7997 H       1  ZINC000467185792    0.0600
     45 H45        -9.5742   -1.5928   59.3737 H       1  ZINC000467185792    0.0700
     46 H46       -12.2929   -1.6619   61.8282 H       1  ZINC000467185792    0.1000
     47 H47       -13.3777   -0.3986   61.1991 H       1  ZINC000467185792    0.1000
     48 H48       -13.9973   -1.0312   63.5153 H       1  ZINC000467185792    0.0600
     49 H49       -15.2901   -1.4583   62.3688 H       1  ZINC000467185792    0.0600
     50 H50       -14.2054   -2.7215   62.9978 H       1  ZINC000467185792    0.0600
     51 H51       -15.9047   -4.4453   59.6572 H       1  ZINC000467185792    0.4500
     52 H52        -9.5099    0.7607   54.2810 H       1  ZINC000467185792    0.1300
     53 H53        -7.6161    2.1185   53.4948 H       1  ZINC000467185792    0.1400
@<TRIPOS>BOND
     1     1     2    1
     2     1    30    1
     3     1    31    1
     4     1    32    1
     5     2     3    1
     6     2    33    1
     7     2    34    1
     8     3     4    1
     9     3    35    1
    10     3    36    1
    11     4     5    1
    12     5    29   ar
    13     5     6   ar
    14     6     7   ar
    15     6    37    1
    16     7     8   ar
    17     7    38    1
    18     8     9    1
    19     8    28   ar
    20     9    27    1
    21     9    10    2
    22    10    11    1
    23    10    39    1
    24    11    12    1
    25    12    13    1
    26    12    27    2
    27    13    14   am
    28    13    40    1
    29    14    15    2
    30    14    16    1
    31    16    25    1
    32    16    17    2
    33    17    18    1
    34    17    20    1
    35    18    19    1
    36    18    41    1
    37    18    42    1
    38    19    43    1
    39    19    44    1
    40    19    45    1
    41    20    21    1
    42    20    23    2
    43    21    22    1
    44    21    46    1
    45    21    47    1
    46    22    48    1
    47    22    49    1
    48    22    50    1
    49    23    24    1
    50    24    25   am
    51    24    51    1
    52    25    26    2
    53    28    29   ar
    54    28    52    1
    55    29    53    1
@<TRIPOS>SUBSTRUCTURE
     1 ZINC000467185792        1 TEMP              0 ****  ****    0 ROOT


##########                                Name:    ZINC000621594459
##########                DOCK_Rotatable_Bonds:                  10
##########                         Heavy_Atoms:                  25
##########                    Molecular_Weight:             389.497
##########                DOCK_Rotatable_Bonds:                  10
##########                       Formal_Charge:         -7.7486e-07
##########                     HBond_Acceptors:                  10
##########                        HBond_Donors:                   3
##########                         Heavy_Atoms:                  25
##########                          Grid_Score:          -39.989323
##########                     Grid_vdw_energy:          -38.008820
##########                      Grid_es_energy:           -1.980503
##########           Internal_energy_repulsive:            7.676296

@<TRIPOS>MOLECULE
ZINC000621594459
 48 49 1 0 0
SMALL
USER_CHARGES


@<TRIPOS>ATOM
      1 C1        -13.8616   -4.2194   56.2326 C.3     1  ZINC000621594459   -0.1600
      2 C2        -13.2318   -3.5642   57.4636 C.3     1  ZINC000621594459    0.1300
      3 C3        -14.2631   -3.5017   58.5919 C.3     1  ZINC000621594459   -0.1800
      4 N4        -12.0775   -4.3537   57.9002 N.am    1  ZINC000621594459   -1.1100
      5 S5        -10.6260   -3.6098   58.1864 S.o2    1  ZINC000621594459    2.6200
      6 O6         -9.7889   -4.6501   58.6725 O.2     1  ZINC000621594459   -0.9500
      7 O7        -10.3297   -2.9396   56.9689 O.2     1  ZINC000621594459   -0.9400
      8 C8        -10.9827   -2.4125   59.5016 C.3     1  ZINC000621594459   -0.6600
      9 C9         -9.7646   -1.5115   59.7150 C.3     1  ZINC000621594459    0.1300
     10 N10        -9.9853   -0.6617   60.8878 N.am    1  ZINC000621594459   -0.7200
     11 C11        -9.4444   -0.9986   62.0754 C.2     1  ZINC000621594459    0.5600
     12 O12        -8.7723   -2.0067   62.1731 O.2     1  ZINC000621594459   -0.5200
     13 C13        -9.6685   -0.1420   63.2594 C.ar    1  ZINC000621594459   -0.1500
     14 C14       -10.6727    0.8270   63.2433 C.ar    1  ZINC000621594459   -0.0300
     15 C15       -10.8771    1.6229   64.3518 C.ar    1  ZINC000621594459   -0.1400
     16 C16       -10.0887    1.4622   65.4772 C.ar    1  ZINC000621594459    0.0100
     17 C17        -9.0911    0.5036   65.4995 C.ar    1  ZINC000621594459   -0.6800
     18 S18        -8.0922    0.3076   66.9377 S.o2    1  ZINC000621594459    2.7000
     19 O19        -8.2867    1.4755   67.7236 O.2     1  ZINC000621594459   -0.9400
     20 O20        -8.3395   -1.0052   67.4222 O.2     1  ZINC000621594459   -0.9500
     21 N21        -6.5117    0.3340   66.4442 N.am    1  ZINC000621594459   -1.0900
     22 C22        -5.9782    1.5131   65.7577 C.3     1  ZINC000621594459    0.0800
     23 C23        -4.8487    2.2811   66.4470 C.3     1  ZINC000621594459   -0.1800
     24 C24        -4.5511    1.4277   65.2125 C.3     1  ZINC000621594459   -0.1900
     25 C25        -8.8804   -0.3027   64.4003 C.ar    1  ZINC000621594459    0.0400
     26 H26       -14.7204   -3.6320   55.9078 H       1  ZINC000621594459    0.0700
     27 H27       -13.1268   -4.2639   55.4288 H       1  ZINC000621594459    0.0700
     28 H28       -14.1862   -5.2290   56.4845 H       1  ZINC000621594459    0.0600
     29 H29       -12.9071   -2.5546   57.2117 H       1  ZINC000621594459    0.0900
     30 H30       -14.5878   -4.5113   58.8438 H       1  ZINC000621594459    0.0700
     31 H31       -13.8144   -3.0351   59.4689 H       1  ZINC000621594459    0.0600
     32 H32       -15.1220   -2.9143   58.2671 H       1  ZINC000621594459    0.0700
     33 H33       -12.1635   -5.3123   58.0215 H       1  ZINC000621594459    0.4200
     34 H34       -11.8397   -1.8030   59.2155 H       1  ZINC000621594459    0.1400
     35 H35       -11.2074   -2.9445   60.4260 H       1  ZINC000621594459    0.1400
     36 H36        -8.8800   -2.1281   59.8744 H       1  ZINC000621594459    0.0900
     37 H37        -9.6172   -0.8853   58.8351 H       1  ZINC000621594459    0.0900
     38 H38       -10.5205    0.1434   60.8096 H       1  ZINC000621594459    0.4000
     39 H39       -11.2884    0.9539   62.3651 H       1  ZINC000621594459    0.1300
     40 H40       -11.6538    2.3731   64.3407 H       1  ZINC000621594459    0.1400
     41 H41       -10.2525    2.0880   66.3420 H       1  ZINC000621594459    0.1500
     42 H42        -5.9391   -0.4313   66.6097 H       1  ZINC000621594459    0.4200
     43 H43        -6.7027    2.0906   65.1834 H       1  ZINC000621594459    0.1400
     44 H44        -4.8299    3.3643   66.3266 H       1  ZINC000621594459    0.1100
     45 H45        -4.5025    1.9091   67.4113 H       1  ZINC000621594459    0.1000
     46 H46        -4.0092    0.4942   65.3647 H       1  ZINC000621594459    0.1000
     47 H47        -4.3366    1.9493   64.2798 H       1  ZINC000621594459    0.1000
     48 H48        -8.1017   -1.0507   64.4191 H       1  ZINC000621594459    0.1600
@<TRIPOS>BOND
     1     1     2    1
     2     1    26    1
     3     1    27    1
     4     1    28    1
     5     2     3    1
     6     2     4    1
     7     2    29    1
     8     3    30    1
     9     3    31    1
    10     3    32    1
    11     4     5   am
    12     4    33    1
    13     5     6    2
    14     5     7    2
    15     5     8    1
    16     8     9    1
    17     8    34    1
    18     8    35    1
    19     9    10    1
    20     9    36    1
    21     9    37    1
    22    10    11   am
    23    10    38    1
    24    11    12    2
    25    11    13    1
    26    13    25   ar
    27    13    14   ar
    28    14    15   ar
    29    14    39    1
    30    15    16   ar
    31    15    40    1
    32    16    17   ar
    33    16    41    1
    34    17    18    1
    35    17    25   ar
    36    18    19    2
    37    18    20    2
    38    18    21   am
    39    21    22    1
    40    21    42    1
    41    22    24    1
    42    22    23    1
    43    22    43    1
    44    23    24    1
    45    23    44    1
    46    23    45    1
    47    24    46    1
    48    24    47    1
    49    25    48    1
@<TRIPOS>SUBSTRUCTURE
     1 ZINC000621594459        1 TEMP              0 ****  ****    0 ROOT


##########                                Name:    ZINC000062291520
##########                DOCK_Rotatable_Bonds:                  10
##########                         Heavy_Atoms:                  29
##########                    Molecular_Weight:             398.502
##########                DOCK_Rotatable_Bonds:                  10
##########                       Formal_Charge:          -0.0100006
##########                     HBond_Acceptors:                   6
##########                        HBond_Donors:                   1
##########                         Heavy_Atoms:                  29
##########                          Grid_Score:          -39.936493
##########                     Grid_vdw_energy:          -39.273529
##########                      Grid_es_energy:           -0.662963
##########           Internal_energy_repulsive:           51.615776

@<TRIPOS>MOLECULE
ZINC000062291520
 59 61 1 0 0
SMALL
USER_CHARGES


@<TRIPOS>ATOM
      1 C1         -6.1816    3.5241   53.5277 C.3     1  ZINC000062291520    0.0300
      2 O2         -4.9565    3.9031   52.8968 O.3     1  ZINC000062291520   -0.3100
      3 C3         -4.5120    3.1103   51.8853 C.ar    1  ZINC000062291520    0.1000
      4 C4         -3.3321    3.4190   51.2286 C.ar    1  ZINC000062291520   -0.1700
      5 C5         -2.8845    2.6148   50.1964 C.ar    1  ZINC000062291520   -0.1200
      6 C6         -3.6090    1.4991   49.8214 C.ar    1  ZINC000062291520   -0.1200
      7 C7         -4.7845    1.1819   50.4771 C.ar    1  ZINC000062291520   -0.1700
      8 C8         -5.2385    1.9832   51.5118 C.ar    1  ZINC000062291520    0.1000
      9 O9         -6.3943    1.6725   52.1576 O.3     1  ZINC000062291520   -0.3100
     10 C10        -7.0337    0.4484   51.7906 C.3     1  ZINC000062291520    0.0700
     11 C11        -8.2551    0.2230   52.6841 C.3     1  ZINC000062291520   -0.1400
     12 C12        -8.9710   -1.0299   52.2496 C.2     1  ZINC000062291520    0.5200
     13 O13        -8.3458   -1.9471   51.7610 O.2     1  ZINC000062291520   -0.5400
     14 N14       -10.3060   -1.1309   52.4040 N.am    1  ZINC000062291520   -0.7200
     15 C15       -11.0023   -2.3482   51.9800 C.3     1  ZINC000062291520    0.1600
     16 C16       -12.1573   -2.6162   52.9103 C.ar    1  ZINC000062291520   -0.1100
     17 C17       -13.4555   -2.4564   52.4640 C.ar    1  ZINC000062291520   -0.1000
     18 C18       -14.5151   -2.7027   53.3173 C.ar    1  ZINC000062291520   -0.1200
     19 C19       -14.2761   -3.1086   54.6167 C.ar    1  ZINC000062291520   -0.0900
     20 C20       -12.9773   -3.2679   55.0633 C.ar    1  ZINC000062291520   -0.0800
     21 C21       -12.7167   -3.7101   56.4801 C.3     1  ZINC000062291520    0.0900
     22 N22       -11.6584   -2.8769   57.0665 N.3     1  ZINC000062291520   -0.5300
     23 C23       -12.2052   -1.6090   57.5712 C.3     1  ZINC000062291520    0.0100
     24 C24       -11.0628   -0.7486   58.1178 C.3     1  ZINC000062291520    0.0600
     25 O25       -10.3653   -1.4788   59.1305 O.3     1  ZINC000062291520   -0.3800
     26 C26        -9.8192   -2.7189   58.6732 C.3     1  ZINC000062291520    0.0900
     27 H27        -9.0949   -2.5277   57.8815 H       1  ZINC000062291520    0.0700
     28 C28        -9.1278   -3.4326   59.8367 C.3     1  ZINC000062291520   -0.1500
     29 C29       -10.9489   -3.5993   58.1322 C.3     1  ZINC000062291520    0.0200
     30 C30       -11.9182   -3.0273   54.2085 C.ar    1  ZINC000062291520   -0.0900
     31 H31        -6.9829    3.5149   52.7888 H       1  ZINC000062291520    0.0500
     32 H32        -6.0748    2.5295   53.9604 H       1  ZINC000062291520    0.0600
     33 H33        -6.4212    4.2390   54.3148 H       1  ZINC000062291520    0.1000
     34 H34        -2.7641    4.2902   51.5195 H       1  ZINC000062291520    0.1400
     35 H35        -1.9665    2.8589   49.6824 H       1  ZINC000062291520    0.1300
     36 H36        -3.2562    0.8736   49.0150 H       1  ZINC000062291520    0.1300
     37 H37        -5.3484    0.3091   50.1826 H       1  ZINC000062291520    0.1400
     38 H38        -6.3345   -0.3784   51.9155 H       1  ZINC000062291520    0.0700
     39 H39        -7.3505    0.5021   50.7490 H       1  ZINC000062291520    0.0700
     40 H40        -8.9296    1.0750   52.5991 H       1  ZINC000062291520    0.1100
     41 H41        -7.9328    0.1167   53.7199 H       1  ZINC000062291520    0.1100
     42 H42       -10.8059   -0.3979   52.7959 H       1  ZINC000062291520    0.4000
     43 H43       -11.3764   -2.2178   50.9645 H       1  ZINC000062291520    0.0800
     44 H44       -10.3109   -3.1905   52.0072 H       1  ZINC000062291520    0.0800
     45 H45       -13.6423   -2.1397   51.4485 H       1  ZINC000062291520    0.1200
     46 H46       -15.5296   -2.5783   52.9684 H       1  ZINC000062291520    0.1300
     47 H47       -15.1038   -3.3010   55.2832 H       1  ZINC000062291520    0.1200
     48 H48       -13.6291   -3.6050   57.0671 H       1  ZINC000062291520    0.0500
     49 H49       -12.4011   -4.7535   56.4828 H       1  ZINC000062291520    0.0900
     50 H50       -12.7039   -1.0790   56.7597 H       1  ZINC000062291520    0.0900
     51 H51       -12.9213   -1.8126   58.3672 H       1  ZINC000062291520    0.0400
     52 H52       -10.3752   -0.5002   57.3093 H       1  ZINC000062291520    0.0600
     53 H53       -11.4698    0.1679   58.5450 H       1  ZINC000062291520    0.1000
     54 H54        -9.8528   -3.6248   60.6274 H       1  ZINC000062291520    0.0600
     55 H55        -8.7117   -4.3776   59.4876 H       1  ZINC000062291520    0.0700
     56 H56        -8.3261   -2.8037   60.2239 H       1  ZINC000062291520    0.0700
     57 H57       -11.6444   -3.8348   58.9378 H       1  ZINC000062291520    0.0400
     58 H58       -10.5306   -4.5220   57.7303 H       1  ZINC000062291520    0.0900
     59 H59       -10.9038   -3.1564   54.5559 H       1  ZINC000062291520    0.1200
@<TRIPOS>BOND
     1     1     2    1
     2     1    31    1
     3     1    32    1
     4     1    33    1
     5     2     3    1
     6     3     8   ar
     7     3     4   ar
     8     4     5   ar
     9     4    34    1
    10     5     6   ar
    11     5    35    1
    12     6     7   ar
    13     6    36    1
    14     7     8   ar
    15     7    37    1
    16     8     9    1
    17     9    10    1
    18    10    11    1
    19    10    38    1
    20    10    39    1
    21    11    12    1
    22    11    40    1
    23    11    41    1
    24    12    13    2
    25    12    14   am
    26    14    15    1
    27    14    42    1
    28    15    16    1
    29    15    43    1
    30    15    44    1
    31    16    30   ar
    32    16    17   ar
    33    17    18   ar
    34    17    45    1
    35    18    19   ar
    36    18    46    1
    37    19    20   ar
    38    19    47    1
    39    20    21    1
    40    20    30   ar
    41    21    22    1
    42    21    48    1
    43    21    49    1
    44    22    29    1
    45    22    23    1
    46    23    24    1
    47    23    50    1
    48    23    51    1
    49    24    25    1
    50    24    52    1
    51    24    53    1
    52    25    26    1
    53    26    27    1
    54    26    28    1
    55    26    29    1
    56    28    54    1
    57    28    55    1
    58    28    56    1
    59    29    57    1
    60    29    58    1
    61    30    59    1
@<TRIPOS>SUBSTRUCTURE
     1 ZINC000062291520        1 TEMP              0 ****  ****    0 ROOT


##########                                Name:    ZINC000008416770
##########                DOCK_Rotatable_Bonds:                  13
##########                         Heavy_Atoms:                  30
##########                    Molecular_Weight:             412.442
##########                DOCK_Rotatable_Bonds:                  13
##########                       Formal_Charge:          -0.0199998
##########                     HBond_Acceptors:                   8
##########                        HBond_Donors:                   2
##########                         Heavy_Atoms:                  30
##########                          Grid_Score:          -39.828400
##########                     Grid_vdw_energy:          -39.793941
##########                      Grid_es_energy:           -0.034456
##########           Internal_energy_repulsive:           12.405149

@<TRIPOS>MOLECULE
ZINC000008416770
 54 55 1 0 0
SMALL
USER_CHARGES


@<TRIPOS>ATOM
      1 C1         -1.0799    1.4951   48.5051 C.3     1  ZINC000008416770   -0.1500
      2 C2         -1.5188    2.1606   49.8110 C.3     1  ZINC000008416770    0.0600
      3 O3         -2.8867    1.7786   50.1129 O.3     1  ZINC000008416770   -0.3500
      4 C4         -3.4200    2.2633   51.2516 C.2     1  ZINC000008416770    0.5100
      5 O5         -2.7261    2.8863   52.0304 O.2     1  ZINC000008416770   -0.5100
      6 C6         -4.8459    2.0377   51.5523 C.ar    1  ZINC000008416770   -0.1500
      7 C7         -5.4112    2.5759   52.7123 C.ar    1  ZINC000008416770   -0.0400
      8 C8         -6.7426    2.3636   52.9895 C.ar    1  ZINC000008416770   -0.1400
      9 C9         -7.5258    1.6145   52.1169 C.ar    1  ZINC000008416770    0.1800
     10 N10        -8.8740    1.4016   52.4009 N.am    1  ZINC000008416770   -0.6700
     11 C11        -9.3528    0.1452   52.4942 C.2     1  ZINC000008416770    0.5200
     12 O12        -8.6108   -0.8002   52.3311 O.2     1  ZINC000008416770   -0.5100
     13 C13       -10.8101   -0.0849   52.8012 C.3     1  ZINC000008416770   -0.1300
     14 C14       -11.2283   -1.4637   52.2862 C.3     1  ZINC000008416770   -0.1000
     15 C15       -10.8755   -2.5108   53.3110 C.2     1  ZINC000008416770    0.4700
     16 O16       -10.4210   -3.5731   52.9575 O.2     1  ZINC000008416770   -0.5100
     17 O17       -11.0663   -2.2634   54.6164 O.3     1  ZINC000008416770   -0.3300
     18 C18       -11.1055   -3.4104   55.5059 C.3     1  ZINC000008416770    0.0500
     19 C19       -10.9492   -2.9463   56.9311 C.2     1  ZINC000008416770    0.5100
     20 O20       -11.5385   -3.5187   57.8235 O.2     1  ZINC000008416770   -0.4900
     21 N21       -10.1545   -1.8952   57.2142 N.am    1  ZINC000008416770   -0.6700
     22 C22       -10.0094   -1.4643   58.5375 C.ar    1  ZINC000008416770    0.1400
     23 C23       -10.6008   -0.2780   58.9518 C.ar    1  ZINC000008416770   -0.1400
     24 C24       -10.4556    0.1446   60.2587 C.ar    1  ZINC000008416770   -0.1000
     25 C25        -9.7220   -0.6118   61.1540 C.ar    1  ZINC000008416770   -0.1000
     26 C26        -9.5654   -0.1473   62.5791 C.3     1  ZINC000008416770   -0.1200
     27 C27        -9.1323   -1.7936   60.7448 C.ar    1  ZINC000008416770   -0.1000
     28 C28        -9.2784   -2.2247   59.4408 C.ar    1  ZINC000008416770   -0.1200
     29 C29        -6.9667    1.0777   50.9612 C.ar    1  ZINC000008416770   -0.1600
     30 C30        -5.6372    1.2899   50.6751 C.ar    1  ZINC000008416770   -0.0300
     31 H31        -1.1397    0.4119   48.6112 H       1  ZINC000008416770    0.0700
     32 H32        -1.7344    1.8175   47.6952 H       1  ZINC000008416770    0.0700
     33 H33        -0.0531    1.7819   48.2783 H       1  ZINC000008416770    0.0800
     34 H34        -0.8643    1.8383   50.6208 H       1  ZINC000008416770    0.0700
     35 H35        -1.4590    3.2437   49.7048 H       1  ZINC000008416770    0.0700
     36 H36        -4.8037    3.1572   53.3902 H       1  ZINC000008416770    0.1400
     37 H37        -7.1797    2.7788   53.8855 H       1  ZINC000008416770    0.1400
     38 H38        -9.4675    2.1577   52.5314 H       1  ZINC000008416770    0.4200
     39 H39       -10.9665   -0.0368   53.8788 H       1  ZINC000008416770    0.1100
     40 H40       -11.4100    0.6827   52.3123 H       1  ZINC000008416770    0.1100
     41 H41       -12.3039   -1.4751   52.1106 H       1  ZINC000008416770    0.1200
     42 H42       -10.7057   -1.6771   51.3538 H       1  ZINC000008416770    0.1200
     43 H43       -12.0599   -3.9247   55.3938 H       1  ZINC000008416770    0.1100
     44 H44       -10.2934   -4.0927   55.2549 H       1  ZINC000008416770    0.1100
     45 H45        -9.6831   -1.4375   56.5006 H       1  ZINC000008416770    0.4100
     46 H46       -11.1732    0.3136   58.2527 H       1  ZINC000008416770    0.1300
     47 H47       -10.9153    1.0671   60.5815 H       1  ZINC000008416770    0.1300
     48 H48       -10.3775   -0.5504   63.1840 H       1  ZINC000008416770    0.0700
     49 H49        -8.6109   -0.4974   62.9725 H       1  ZINC000008416770    0.0700
     50 H50        -9.5940    0.9419   62.6115 H       1  ZINC000008416770    0.0700
     51 H51        -8.5599   -2.3822   61.4465 H       1  ZINC000008416770    0.1300
     52 H52        -8.8176   -3.1479   59.1217 H       1  ZINC000008416770    0.1300
     53 H53        -7.5777    0.4970   50.2860 H       1  ZINC000008416770    0.1400
     54 H54        -5.2039    0.8730   49.7781 H       1  ZINC000008416770    0.1400
@<TRIPOS>BOND
     1     1     2    1
     2     1    31    1
     3     1    32    1
     4     1    33    1
     5     2     3    1
     6     2    34    1
     7     2    35    1
     8     3     4    1
     9     4     5    2
    10     4     6    1
    11     6    30   ar
    12     6     7   ar
    13     7     8   ar
    14     7    36    1
    15     8     9   ar
    16     8    37    1
    17     9    10    1
    18     9    29   ar
    19    10    11   am
    20    10    38    1
    21    11    12    2
    22    11    13    1
    23    13    14    1
    24    13    39    1
    25    13    40    1
    26    14    15    1
    27    14    41    1
    28    14    42    1
    29    15    16    2
    30    15    17    1
    31    17    18    1
    32    18    19    1
    33    18    43    1
    34    18    44    1
    35    19    20    2
    36    19    21   am
    37    21    22    1
    38    21    45    1
    39    22    28   ar
    40    22    23   ar
    41    23    24   ar
    42    23    46    1
    43    24    25   ar
    44    24    47    1
    45    25    26    1
    46    25    27   ar
    47    26    48    1
    48    26    49    1
    49    26    50    1
    50    27    28   ar
    51    27    51    1
    52    28    52    1
    53    29    30   ar
    54    29    53    1
    55    30    54    1
@<TRIPOS>SUBSTRUCTURE
     1 ZINC000008416770        1 TEMP              0 ****  ****    0 ROOT


##########                                Name:    ZINC001289410668
##########                DOCK_Rotatable_Bonds:                  11
##########                         Heavy_Atoms:                  26
##########                    Molecular_Weight:             362.515
##########                DOCK_Rotatable_Bonds:                  11
##########                       Formal_Charge:          -0.0400008
##########                     HBond_Acceptors:                   6
##########                        HBond_Donors:                   1
##########                         Heavy_Atoms:                  26
##########                          Grid_Score:          -39.793312
##########                     Grid_vdw_energy:          -38.432175
##########                      Grid_es_energy:           -1.361136
##########           Internal_energy_repulsive:           15.811078

@<TRIPOS>MOLECULE
ZINC001289410668
 60 61 1 0 0
SMALL
USER_CHARGES


@<TRIPOS>ATOM
      1 C1         -5.0070    2.4251   66.9339 C.3     1  ZINC001289410668   -0.1500
      2 C2         -6.4307    1.9340   67.2039 C.3     1  ZINC001289410668   -0.1300
      3 C3         -7.1202    1.6145   65.8760 C.3     1  ZINC001289410668   -0.1200
      4 C4         -8.5435    1.1221   66.1459 C.3     1  ZINC001289410668   -0.1200
      5 C5         -9.2888    0.9641   64.8192 C.3     1  ZINC001289410668   -0.1100
      6 C6         -8.7245   -0.2365   64.0570 C.3     1  ZINC001289410668   -0.1400
      7 C7         -9.6365   -0.5746   62.9060 C.2     1  ZINC001289410668    0.5100
      8 O8        -10.8182   -0.3091   62.9704 O.2     1  ZINC001289410668   -0.5300
      9 N9         -9.1391   -1.1721   61.8050 N.am    1  ZINC001289410668   -0.7200
     10 C10       -10.0254   -1.4992   60.6853 C.3     1  ZINC001289410668    0.1400
     11 H11       -11.0554   -1.6102   61.0246 H       1  ZINC001289410668    0.1100
     12 C12        -9.5428   -2.7740   59.9494 C.3     1  ZINC001289410668    0.0800
     13 N13       -10.0812   -2.6474   58.5828 N.am    1  ZINC001289410668   -0.6200
     14 C14       -10.3221   -3.6676   57.7357 C.2     1  ZINC001289410668    0.5100
     15 O15       -10.0913   -4.8078   58.0785 O.2     1  ZINC001289410668   -0.5100
     16 C16       -10.8782   -3.3915   56.3625 C.3     1  ZINC001289410668    0.0900
     17 N17       -12.2111   -3.9883   56.2464 N.pl3   1  ZINC001289410668   -0.4500
     18 C18       -12.8696   -4.6994   57.2131 C.2     1  ZINC001289410668   -0.0500
     19 C19       -14.0573   -5.0598   56.6905 C.2     1  ZINC001289410668   -0.0200
     20 N20       -14.1222   -4.5817   55.4390 N.2     1  ZINC001289410668   -0.4800
     21 C21       -13.0220   -3.9345   55.1679 C.2     1  ZINC001289410668    0.2300
     22 C22       -12.7049   -3.2487   53.8640 C.3     1  ZINC001289410668   -0.0100
     23 C23       -11.8958   -4.1943   52.9740 C.3     1  ZINC001289410668   -0.1400
     24 C24       -14.0078   -2.8719   53.1559 C.3     1  ZINC001289410668   -0.1400
     25 C25       -10.3125   -1.2237   58.2972 C.3     1  ZINC001289410668    0.1100
     26 C26        -9.9212   -0.4324   59.5636 C.3     1  ZINC001289410668   -0.1100
     27 H27        -8.9013   -0.0562   59.4835 H       1  ZINC001289410668    0.0900
     28 C28       -10.9019    0.7161   59.8087 C.3     1  ZINC001289410668   -0.1400
     29 H29        -4.5157    2.6529   67.8799 H       1  ZINC001289410668    0.0500
     30 H30        -4.4478    1.6488   66.4117 H       1  ZINC001289410668    0.0500
     31 H31        -5.0432    3.3236   66.3179 H       1  ZINC001289410668    0.0500
     32 H32        -6.3944    1.0356   67.8200 H       1  ZINC001289410668    0.0600
     33 H33        -6.9899    2.7104   67.7261 H       1  ZINC001289410668    0.0600
     34 H34        -7.1573    2.5132   65.2603 H       1  ZINC001289410668    0.0600
     35 H35        -6.5605    0.8388   65.3533 H       1  ZINC001289410668    0.0600
     36 H36        -8.5044    0.1603   66.6574 H       1  ZINC001289410668    0.0600
     37 H37        -9.0656    1.8456   66.7720 H       1  ZINC001289410668    0.0600
     38 H38       -10.3492    0.8045   65.0150 H       1  ZINC001289410668    0.0700
     39 H39        -9.1616    1.8665   64.2213 H       1  ZINC001289410668    0.0700
     40 H40        -7.7334    0.0087   63.6754 H       1  ZINC001289410668    0.1000
     41 H41        -8.6539   -1.0924   64.7282 H       1  ZINC001289410668    0.1000
     42 H42        -8.1943   -1.3855   61.7540 H       1  ZINC001289410668    0.4000
     43 H43        -8.4536   -2.8093   59.9262 H       1  ZINC001289410668    0.0800
     44 H44        -9.9420   -3.6654   60.4332 H       1  ZINC001289410668    0.0800
     45 H45       -10.9475   -2.3147   56.2084 H       1  ZINC001289410668    0.1200
     46 H46       -10.2194   -3.8247   55.6100 H       1  ZINC001289410668    0.1200
     47 H47       -12.5063   -4.9279   58.2041 H       1  ZINC001289410668    0.1700
     48 H48       -14.8233   -5.6333   57.1914 H       1  ZINC001289410668    0.1700
     49 H49       -12.1238   -2.3475   54.0593 H       1  ZINC001289410668    0.0700
     50 H50       -12.4770   -5.0955   52.7786 H       1  ZINC001289410668    0.0700
     51 H51       -11.6665   -3.6983   52.0309 H       1  ZINC001289410668    0.0600
     52 H52       -10.9676   -4.4627   53.4784 H       1  ZINC001289410668    0.0500
     53 H53       -14.5890   -3.7732   52.9605 H       1  ZINC001289410668    0.0700
     54 H54       -14.5843   -2.1982   53.7899 H       1  ZINC001289410668    0.0600
     55 H55       -13.7786   -2.3759   52.2128 H       1  ZINC001289410668    0.0600
     56 H56        -9.6938   -0.9089   57.4569 H       1  ZINC001289410668    0.0800
     57 H57       -11.3651   -1.0580   58.0677 H       1  ZINC001289410668    0.0800
     58 H58       -11.9103    0.3163   59.9155 H       1  ZINC001289410668    0.0600
     59 H59       -10.6221    1.2444   60.7202 H       1  ZINC001289410668    0.0600
     60 H60       -10.8719    1.4058   58.9652 H       1  ZINC001289410668    0.0700
@<TRIPOS>BOND
     1     1     2    1
     2     1    29    1
     3     1    30    1
     4     1    31    1
     5     2     3    1
     6     2    32    1
     7     2    33    1
     8     3     4    1
     9     3    34    1
    10     3    35    1
    11     4     5    1
    12     4    36    1
    13     4    37    1
    14     5     6    1
    15     5    38    1
    16     5    39    1
    17     6     7    1
    18     6    40    1
    19     6    41    1
    20     7     8    2
    21     7     9   am
    22     9    10    1
    23     9    42    1
    24    10    11    1
    25    10    26    1
    26    10    12    1
    27    12    13    1
    28    12    43    1
    29    12    44    1
    30    13    14   am
    31    13    25    1
    32    14    15    2
    33    14    16    1
    34    16    17    1
    35    16    45    1
    36    16    46    1
    37    17    21    1
    38    17    18    1
    39    18    19    2
    40    18    47    1
    41    19    20    1
    42    19    48    1
    43    20    21    2
    44    21    22    1
    45    22    23    1
    46    22    24    1
    47    22    49    1
    48    23    50    1
    49    23    51    1
    50    23    52    1
    51    24    53    1
    52    24    54    1
    53    24    55    1
    54    25    26    1
    55    25    56    1
    56    25    57    1
    57    26    27    1
    58    26    28    1
    59    28    58    1
    60    28    59    1
    61    28    60    1
@<TRIPOS>SUBSTRUCTURE
     1 ZINC001289410668        1 TEMP              0 ****  ****    0 ROOT


##########                                Name:    ZINC000552360217
##########                DOCK_Rotatable_Bonds:                  13
##########                         Heavy_Atoms:                  27
##########                    Molecular_Weight:             401.484
##########                DOCK_Rotatable_Bonds:                  13
##########                       Formal_Charge:          -0.0100002
##########                     HBond_Acceptors:                  10
##########                        HBond_Donors:                   3
##########                         Heavy_Atoms:                  27
##########                          Grid_Score:          -39.771564
##########                     Grid_vdw_energy:          -37.785320
##########                      Grid_es_energy:           -1.986245
##########           Internal_energy_repulsive:           20.566912

@<TRIPOS>MOLECULE
ZINC000552360217
 54 54 1 0 0
SMALL
USER_CHARGES


@<TRIPOS>ATOM
      1 C1         -5.9276    1.2892   66.2426 C.3     1  ZINC000552360217    0.0800
      2 N2         -7.0489    1.3906   67.1800 N.am    1  ZINC000552360217   -1.0000
      3 C3         -6.9987    2.3564   68.2803 C.3     1  ZINC000552360217    0.0900
      4 S4         -8.3731    0.4134   66.9958 S.o2    1  ZINC000552360217    2.7000
      5 O5         -7.8838   -0.9196   66.9423 O.2     1  ZINC000552360217   -0.9500
      6 O6         -9.3312    0.8520   67.9492 O.2     1  ZINC000552360217   -0.9500
      7 C7         -9.0575    0.7563   65.4088 C.ar    1  ZINC000552360217   -0.6900
      8 C8         -9.8105    1.9004   65.2144 C.ar    1  ZINC000552360217    0.0100
      9 C9        -10.3511    2.1774   63.9710 C.ar    1  ZINC000552360217   -0.1400
     10 C10       -10.1421    1.3129   62.9166 C.ar    1  ZINC000552360217   -0.0300
     11 C11        -9.3833    0.1567   63.1060 C.ar    1  ZINC000552360217   -0.1600
     12 C12        -9.1549   -0.7741   61.9802 C.2     1  ZINC000552360217    0.5600
     13 O13        -8.6749   -1.8716   62.1868 O.2     1  ZINC000552360217   -0.5300
     14 N14        -9.4788   -0.4057   60.7250 N.am    1  ZINC000552360217   -0.7100
     15 C15        -9.2541   -1.3287   59.6096 C.3     1  ZINC000552360217    0.1000
     16 C16       -10.4815   -2.1792   59.4063 C.2     1  ZINC000552360217    0.5100
     17 O17       -11.1935   -2.4517   60.3495 O.2     1  ZINC000552360217   -0.5400
     18 N18       -10.7878   -2.6372   58.1763 N.am    1  ZINC000552360217   -0.7200
     19 C19       -11.9819   -3.4625   57.9783 C.3     1  ZINC000552360217    0.1400
     20 C20       -12.5279   -3.2391   56.5667 C.3     1  ZINC000552360217    0.1000
     21 C21       -13.7749   -4.1012   56.3600 C.3     1  ZINC000552360217   -0.1800
     22 C22       -12.8925   -1.7640   56.3884 C.3     1  ZINC000552360217   -0.1800
     23 O23       -11.5329   -3.6032   55.6079 O.3     1  ZINC000552360217   -0.3700
     24 C24       -11.9439   -3.4323   54.2501 C.3     1  ZINC000552360217    0.0600
     25 C25       -10.8066   -3.8509   53.3162 C.3     1  ZINC000552360217    0.0800
     26 O26       -11.2178   -3.6799   51.9584 O.3     1  ZINC000552360217   -0.5700
     27 C27        -8.8365   -0.1140   64.3611 C.ar    1  ZINC000552360217    0.0400
     28 H28        -5.2106    0.5558   66.6116 H       1  ZINC000552360217    0.0600
     29 H29        -6.2975    0.9762   65.2662 H       1  ZINC000552360217    0.0900
     30 H30        -5.4405    2.2602   66.1524 H       1  ZINC000552360217    0.0800
     31 H31        -6.0576    2.9051   68.2396 H       1  ZINC000552360217    0.0800
     32 H32        -7.8305    3.0548   68.1891 H       1  ZINC000552360217    0.0700
     33 H33        -7.0704    1.8282   69.2311 H       1  ZINC000552360217    0.0600
     34 H34        -9.9773    2.5804   66.0367 H       1  ZINC000552360217    0.1500
     35 H35       -10.9383    3.0721   63.8260 H       1  ZINC000552360217    0.1400
     36 H36       -10.5649    1.5300   61.9468 H       1  ZINC000552360217    0.1400
     37 H37        -9.8607    0.4705   60.5598 H       1  ZINC000552360217    0.4100
     38 H38        -9.0520   -0.7596   58.7021 H       1  ZINC000552360217    0.1000
     39 H39        -8.4013   -1.9693   59.8343 H       1  ZINC000552360217    0.1000
     40 H40       -10.2177   -2.4202   57.4221 H       1  ZINC000552360217    0.4100
     41 H41       -11.7223   -4.5135   58.1054 H       1  ZINC000552360217    0.0800
     42 H42       -12.7409   -3.1847   58.7098 H       1  ZINC000552360217    0.0900
     43 H43       -14.5339   -3.8235   57.0913 H       1  ZINC000552360217    0.0700
     44 H44       -14.1639   -3.9421   55.3542 H       1  ZINC000552360217    0.0700
     45 H45       -13.5153   -5.1522   56.4870 H       1  ZINC000552360217    0.0700
     46 H46       -12.0041   -1.1498   56.5356 H       1  ZINC000552360217    0.0600
     47 H47       -13.2815   -1.6048   55.3826 H       1  ZINC000552360217    0.0700
     48 H48       -13.6515   -1.4863   57.1197 H       1  ZINC000552360217    0.0700
     49 H49       -12.8203   -4.0503   54.0551 H       1  ZINC000552360217    0.0600
     50 H50       -12.1914   -2.3853   54.0744 H       1  ZINC000552360217    0.0700
     51 H51        -9.9302   -3.2328   53.5111 H       1  ZINC000552360217    0.0600
     52 H52       -10.5591   -4.8978   53.4918 H       1  ZINC000552360217    0.0500
     53 H53       -11.4543   -2.7703   51.7307 H       1  ZINC000552360217    0.3800
     54 H54        -8.2484   -1.0069   64.5141 H       1  ZINC000552360217    0.1500
@<TRIPOS>BOND
     1     1     2    1
     2     1    28    1
     3     1    29    1
     4     1    30    1
     5     2     3    1
     6     2     4   am
     7     3    31    1
     8     3    32    1
     9     3    33    1
    10     4     5    2
    11     4     6    2
    12     4     7    1
    13     7    27   ar
    14     7     8   ar
    15     8     9   ar
    16     8    34    1
    17     9    10   ar
    18     9    35    1
    19    10    11   ar
    20    10    36    1
    21    11    12    1
    22    11    27   ar
    23    12    13    2
    24    12    14   am
    25    14    15    1
    26    14    37    1
    27    15    16    1
    28    15    38    1
    29    15    39    1
    30    16    17    2
    31    16    18   am
    32    18    19    1
    33    18    40    1
    34    19    20    1
    35    19    41    1
    36    19    42    1
    37    20    21    1
    38    20    22    1
    39    20    23    1
    40    21    43    1
    41    21    44    1
    42    21    45    1
    43    22    46    1
    44    22    47    1
    45    22    48    1
    46    23    24    1
    47    24    25    1
    48    24    49    1
    49    24    50    1
    50    25    26    1
    51    25    51    1
    52    25    52    1
    53    26    53    1
    54    27    54    1
@<TRIPOS>SUBSTRUCTURE
     1 ZINC000552360217        1 TEMP              0 ****  ****    0 ROOT


##########                                Name:    ZINC000484900616
##########                DOCK_Rotatable_Bonds:                  10
##########                         Heavy_Atoms:                  29
##########                    Molecular_Weight:             415.556
##########                DOCK_Rotatable_Bonds:                  10
##########                       Formal_Charge:        -1.49012e-08
##########                     HBond_Acceptors:                   7
##########                        HBond_Donors:                   1
##########                         Heavy_Atoms:                  29
##########                          Grid_Score:          -39.560101
##########                     Grid_vdw_energy:          -37.440445
##########                      Grid_es_energy:           -2.119654
##########           Internal_energy_repulsive:           12.257818

@<TRIPOS>MOLECULE
ZINC000484900616
 58 60 1 0 0
SMALL
USER_CHARGES


@<TRIPOS>ATOM
      1 C1         -1.7500    2.5751   55.9241 C.3     1  ZINC000484900616   -0.1500
      2 C2         -2.3009    1.5419   56.9091 C.3     1  ZINC000484900616    0.0600
      3 O3         -3.6692    1.8838   57.2542 O.3     1  ZINC000484900616   -0.3400
      4 C4         -3.8595    3.0287   57.9399 C.2     1  ZINC000484900616    0.5500
      5 O5         -2.9370    3.5313   58.5515 O.2     1  ZINC000484900616   -0.5000
      6 C6         -5.1836    3.6698   57.9481 C.2     1  ZINC000484900616    0.0200
      7 C7         -5.4348    4.8407   58.5776 C.2     1  ZINC000484900616   -0.2400
      8 S8         -7.0801    5.2459   58.3522 S.3     1  ZINC000484900616    0.2900
      9 C9         -7.3378    3.8308   57.4318 C.2     1  ZINC000484900616    0.0300
     10 C10        -8.6563    3.4338   56.8192 C.3     1  ZINC000484900616    0.1500
     11 H11        -9.4781    3.9317   57.3338 H       1  ZINC000484900616    0.0900
     12 C12        -8.6759    3.7812   55.3097 C.3     1  ZINC000484900616   -0.1200
     13 C13        -9.7376    2.7856   54.7729 C.3     1  ZINC000484900616   -0.1400
     14 C14        -9.5032    1.5282   55.6363 C.3     1  ZINC000484900616    0.0500
     15 N15        -8.8283    1.9665   56.8738 N.3     1  ZINC000484900616   -0.5100
     16 C16        -9.5944    1.5660   58.0615 C.3     1  ZINC000484900616    0.0300
     17 C17        -9.2823    0.1311   58.4004 C.2     1  ZINC000484900616    0.5200
     18 O18        -8.5653   -0.5218   57.6720 O.2     1  ZINC000484900616   -0.5100
     19 N19        -9.8000   -0.4265   59.5127 N.am    1  ZINC000484900616   -0.7300
     20 C20        -9.4951   -1.8209   59.8430 C.3     1  ZINC000484900616    0.1900
     21 H21        -8.4510   -2.0296   59.6100 H       1  ZINC000484900616    0.1000
     22 C22        -9.7420   -2.0573   61.3344 C.3     1  ZINC000484900616   -0.1600
     23 C23       -10.3821   -2.7337   59.0362 C.ar    1  ZINC000484900616   -0.1000
     24 C24       -11.6723   -2.3466   58.7255 C.ar    1  ZINC000484900616   -0.1100
     25 C25       -12.4859   -3.1840   57.9854 C.ar    1  ZINC000484900616   -0.1100
     26 C26       -12.0092   -4.4083   57.5556 C.ar    1  ZINC000484900616   -0.0800
     27 C27       -12.8963   -5.3214   56.7491 C.3     1  ZINC000484900616   -0.0900
     28 C28       -13.2366   -4.6541   55.4150 C.3     1  ZINC000484900616   -0.1500
     29 C29       -10.7185   -4.7948   57.8651 C.ar    1  ZINC000484900616   -0.1100
     30 C30        -9.9037   -3.9557   58.6020 C.ar    1  ZINC000484900616   -0.1000
     31 N31        -6.2493    3.1533   57.3298 N.2     1  ZINC000484900616   -0.4300
     32 H32        -2.3620    2.5796   55.0221 H       1  ZINC000484900616    0.0700
     33 H33        -1.7727    3.5633   56.3835 H       1  ZINC000484900616    0.0700
     34 H34        -0.7228    2.3184   55.6649 H       1  ZINC000484900616    0.0800
     35 H35        -2.2781    0.5538   56.4496 H       1  ZINC000484900616    0.0700
     36 H36        -1.6888    1.5374   57.8110 H       1  ZINC000484900616    0.0700
     37 H37        -4.7140    5.4238   59.1316 H       1  ZINC000484900616    0.1900
     38 H38        -8.9917    4.8123   55.1503 H       1  ZINC000484900616    0.0900
     39 H39        -7.7028    3.5976   54.8542 H       1  ZINC000484900616    0.0800
     40 H40       -10.7439    3.1758   54.9255 H       1  ZINC000484900616    0.0700
     41 H41        -9.5635    2.5674   53.7192 H       1  ZINC000484900616    0.0800
     42 H42       -10.4581    1.0633   55.8814 H       1  ZINC000484900616    0.0600
     43 H43        -8.8714    0.8215   55.0984 H       1  ZINC000484900616    0.0900
     44 H44        -9.3228    2.2051   58.9016 H       1  ZINC000484900616    0.1100
     45 H45       -10.6604    1.6675   57.8574 H       1  ZINC000484900616    0.0700
     46 H46       -10.3745    0.0953   60.0946 H       1  ZINC000484900616    0.4000
     47 H47        -9.5152   -3.0947   61.5802 H       1  ZINC000484900616    0.0700
     48 H48        -9.1004   -1.3970   61.9180 H       1  ZINC000484900616    0.0700
     49 H49       -10.7861   -1.8485   61.5674 H       1  ZINC000484900616    0.0600
     50 H50       -12.0447   -1.3901   59.0614 H       1  ZINC000484900616    0.1200
     51 H51       -13.4941   -2.8819   57.7433 H       1  ZINC000484900616    0.1200
     52 H52       -12.3768   -6.2614   56.5631 H       1  ZINC000484900616    0.0700
     53 H53       -13.8149   -5.5171   57.3023 H       1  ZINC000484900616    0.0700
     54 H54       -13.7562   -3.7141   55.6011 H       1  ZINC000484900616    0.0600
     55 H55       -12.3181   -4.4584   54.8619 H       1  ZINC000484900616    0.0600
     56 H56       -13.8783   -5.3145   54.8318 H       1  ZINC000484900616    0.0600
     57 H57       -10.3460   -5.7512   57.5289 H       1  ZINC000484900616    0.1200
     58 H58        -8.8953   -4.2577   58.8437 H       1  ZINC000484900616    0.1200
@<TRIPOS>BOND
     1     1     2    1
     2     1    32    1
     3     1    33    1
     4     1    34    1
     5     2     3    1
     6     2    35    1
     7     2    36    1
     8     3     4    1
     9     4     5    2
    10     4     6    1
    11     6    31    1
    12     6     7    2
    13     7     8    1
    14     7    37    1
    15     8     9    1
    16     9    10    1
    17     9    31    2
    18    10    11    1
    19    10    15    1
    20    10    12    1
    21    12    13    1
    22    12    38    1
    23    12    39    1
    24    13    14    1
    25    13    40    1
    26    13    41    1
    27    14    15    1
    28    14    42    1
    29    14    43    1
    30    15    16    1
    31    16    17    1
    32    16    44    1
    33    16    45    1
    34    17    18    2
    35    17    19   am
    36    19    20    1
    37    19    46    1
    38    20    21    1
    39    20    22    1
    40    20    23    1
    41    22    47    1
    42    22    48    1
    43    22    49    1
    44    23    30   ar
    45    23    24   ar
    46    24    25   ar
    47    24    50    1
    48    25    26   ar
    49    25    51    1
    50    26    27    1
    51    26    29   ar
    52    27    28    1
    53    27    52    1
    54    27    53    1
    55    28    54    1
    56    28    55    1
    57    28    56    1
    58    29    30   ar
    59    29    57    1
    60    30    58    1
@<TRIPOS>SUBSTRUCTURE
     1 ZINC000484900616        1 TEMP              0 ****  ****    0 ROOT


##########                                Name:    ZINC000816269301
##########                DOCK_Rotatable_Bonds:                   7
##########                         Heavy_Atoms:                  25
##########                    Molecular_Weight:             358.784
##########                DOCK_Rotatable_Bonds:                   7
##########                       Formal_Charge:           0.0100002
##########                     HBond_Acceptors:                   8
##########                        HBond_Donors:                   1
##########                         Heavy_Atoms:                  25
##########                          Grid_Score:          -39.541725
##########                     Grid_vdw_energy:          -40.210392
##########                      Grid_es_energy:            0.668667
##########           Internal_energy_repulsive:            5.803905

@<TRIPOS>MOLECULE
ZINC000816269301
 40 42 1 0 0
SMALL
USER_CHARGES


@<TRIPOS>ATOM
      1 C1         -9.9702   -1.1270   61.3116 C.3     1  ZINC000816269301    0.1000
      2 N2         -9.8012   -2.2883   60.4345 N.pl3   1  ZINC000816269301   -0.4000
      3 N3         -8.7314   -3.1947   60.4424 N.2     1  ZINC000816269301    0.0000
      4 N4         -8.9175   -4.0872   59.5349 N.2     1  ZINC000816269301   -0.2000
      5 C5        -10.0795   -3.8512   58.8805 C.ar    1  ZINC000816269301   -0.0300
      6 C6        -10.7342   -4.5049   57.8332 C.ar    1  ZINC000816269301    0.0500
      7 C7        -11.9457   -4.0091   57.3664 C.ar    1  ZINC000816269301   -0.1400
      8 C8        -12.6433   -4.6942   56.2609 C.2     1  ZINC000816269301    0.5200
      9 O9        -13.1775   -5.7683   56.4527 O.2     1  ZINC000816269301   -0.5000
     10 O10       -12.6879   -4.1284   55.0390 O.3     1  ZINC000816269301   -0.3500
     11 C11       -11.5561   -3.3054   54.6520 C.3     1  ZINC000816269301    0.0500
     12 C12       -11.8033   -2.7202   53.2601 C.3     1  ZINC000816269301    0.1200
     13 N13       -10.5453   -2.2002   52.7185 N.am    1  ZINC000816269301   -0.7200
     14 C14       -10.2258   -0.9014   52.8848 C.2     1  ZINC000816269301    0.5600
     15 O15       -10.9808   -0.1619   53.4855 O.2     1  ZINC000816269301   -0.5300
     16 C16        -8.9577   -0.3765   52.3369 C.ar    1  ZINC000816269301   -0.1300
     17 C17        -8.1374   -1.1962   51.5596 C.ar    1  ZINC000816269301   -0.0700
     18 C18        -6.9552   -0.7008   51.0511 C.ar    1  ZINC000816269301   -0.1200
     19 C19        -6.5810    0.6074   51.3103 C.ar    1  ZINC000816269301   -0.0100
     20 Cl20       -5.0915    1.2243   50.6663 Cl      1  ZINC000816269301   -0.0600
     21 C21        -7.3906    1.4255   52.0809 C.ar    1  ZINC000816269301   -0.1200
     22 C22        -8.5779    0.9431   52.5899 C.ar    1  ZINC000816269301   -0.0500
     23 C23       -12.5083   -2.8603   57.9421 C.ar    1  ZINC000816269301   -0.0200
     24 C24       -11.8744   -2.2186   58.9637 C.ar    1  ZINC000816269301   -0.1300
     25 C25       -10.6624   -2.7034   59.4496 C.ar    1  ZINC000816269301    0.1100
     26 H26       -10.5087   -1.4262   62.2109 H       1  ZINC000816269301    0.0900
     27 H27        -8.9914   -0.7348   61.5879 H       1  ZINC000816269301    0.1000
     28 H28       -10.5362   -0.3560   60.7887 H       1  ZINC000816269301    0.1000
     29 H29       -10.3014   -5.3893   57.3893 H       1  ZINC000816269301    0.1600
     30 H30       -11.4337   -2.4948   55.3704 H       1  ZINC000816269301    0.0800
     31 H31       -10.6526   -3.9150   54.6346 H       1  ZINC000816269301    0.1000
     32 H32       -12.1879   -3.4990   52.6015 H       1  ZINC000816269301    0.1000
     33 H33       -12.5307   -1.9115   53.3298 H       1  ZINC000816269301    0.0900
     34 H34        -9.9423   -2.7906   52.2402 H       1  ZINC000816269301    0.4000
     35 H35        -8.4280   -2.2165   51.3572 H       1  ZINC000816269301    0.1400
     36 H36        -6.3197   -1.3341   50.4499 H       1  ZINC000816269301    0.1400
     37 H37        -7.0937    2.4447   52.2796 H       1  ZINC000816269301    0.1400
     38 H38        -9.2085    1.5820   53.1903 H       1  ZINC000816269301    0.1500
     39 H39       -13.4500   -2.4816   57.5729 H       1  ZINC000816269301    0.1500
     40 H40       -12.3153   -1.3348   59.4007 H       1  ZINC000816269301    0.1400
@<TRIPOS>BOND
     1     1     2    1
     2     1    26    1
     3     1    27    1
     4     1    28    1
     5     2    25    1
     6     2     3    1
     7     3     4    2
     8     4     5    1
     9     5    25   ar
    10     5     6   ar
    11     6     7   ar
    12     6    29    1
    13     7     8    1
    14     7    23   ar
    15     8     9    2
    16     8    10    1
    17    10    11    1
    18    11    12    1
    19    11    30    1
    20    11    31    1
    21    12    13    1
    22    12    32    1
    23    12    33    1
    24    13    14   am
    25    13    34    1
    26    14    15    2
    27    14    16    1
    28    16    22   ar
    29    16    17   ar
    30    17    18   ar
    31    17    35    1
    32    18    19   ar
    33    18    36    1
    34    19    20    1
    35    19    21   ar
    36    21    22   ar
    37    21    37    1
    38    22    38    1
    39    23    24   ar
    40    23    39    1
    41    24    25   ar
    42    24    40    1
@<TRIPOS>SUBSTRUCTURE
     1 ZINC000816269301        1 TEMP              0 ****  ****    0 ROOT


##########                                Name:    ZINC000767361237
##########                DOCK_Rotatable_Bonds:                  10
##########                         Heavy_Atoms:                  30
##########                    Molecular_Weight:             409.439
##########                DOCK_Rotatable_Bonds:                  10
##########                       Formal_Charge:          -0.0300005
##########                     HBond_Acceptors:                   7
##########                        HBond_Donors:                   1
##########                         Heavy_Atoms:                  30
##########                          Grid_Score:          -39.478954
##########                     Grid_vdw_energy:          -40.241184
##########                      Grid_es_energy:            0.762229
##########           Internal_energy_repulsive:           24.795288

@<TRIPOS>MOLECULE
ZINC000767361237
 53 55 1 0 0
SMALL
USER_CHARGES


@<TRIPOS>ATOM
      1 C1         -5.5486    1.0221   51.0556 C.3     1  ZINC000767361237   -0.1200
      2 C2         -6.8888    0.5445   51.5526 C.ar    1  ZINC000767361237   -0.0900
      3 C3         -7.3069   -0.7449   51.2819 C.ar    1  ZINC000767361237   -0.1200
      4 C4         -8.5362   -1.1830   51.7378 C.ar    1  ZINC000767361237   -0.1100
      5 C5         -9.3472   -0.3317   52.4647 C.ar    1  ZINC000767361237   -0.0800
      6 C6        -10.6875   -0.8091   52.9612 C.3     1  ZINC000767361237   -0.0800
      7 H7        -11.4681   -0.4760   52.2773 H       1  ZINC000767361237    0.0900
      8 C8        -10.9500   -0.2330   54.3541 C.3     1  ZINC000767361237   -0.1500
      9 C9        -10.6902   -2.3374   53.0326 C.3     1  ZINC000767361237    0.1300
     10 H10        -9.6880   -2.6916   53.2745 H       1  ZINC000767361237    0.1400
     11 O11       -11.0927   -2.8725   51.7703 O.3     1  ZINC000767361237   -0.5200
     12 C12       -11.6537   -2.7888   54.0998 C.2     1  ZINC000767361237    0.4300
     13 O13       -12.8085   -3.0058   53.8184 O.2     1  ZINC000767361237   -0.5000
     14 O14       -11.2290   -2.9497   55.3630 O.3     1  ZINC000767361237   -0.3300
     15 C15       -12.2348   -3.2654   56.3615 C.3     1  ZINC000767361237    0.0100
     16 C16       -11.6006   -3.2727   57.7285 C.2     1  ZINC000767361237    0.3700
     17 O17       -11.2115   -4.3105   58.2080 O.2     1  ZINC000767361237   -0.4200
     18 C18       -11.4520   -1.9849   58.4970 C.3     1  ZINC000767361237   -0.1800
     19 C19        -9.9671   -1.6970   58.7274 C.3     1  ZINC000767361237    0.1200
     20 N20        -9.7897   -1.0648   60.0370 N.am    1  ZINC000767361237   -0.5800
     21 C21        -9.2522   -1.6737   61.1094 C.2     1  ZINC000767361237    0.5700
     22 O22        -8.8435   -2.8167   61.1449 O.2     1  ZINC000767361237   -0.4600
     23 C23        -9.2417   -0.7182   62.2373 C.ar    1  ZINC000767361237   -0.1400
     24 C24        -8.8196   -0.7818   63.5552 C.ar    1  ZINC000767361237   -0.0400
     25 C25        -8.9566    0.3279   64.3751 C.ar    1  ZINC000767361237   -0.0900
     26 C26        -9.5110    1.4956   63.8865 C.ar    1  ZINC000767361237   -0.0900
     27 C27        -9.9378    1.5739   62.5697 C.ar    1  ZINC000767361237   -0.0400
     28 C28        -9.8072    0.4731   61.7388 C.ar    1  ZINC000767361237   -0.1400
     29 C29       -10.1376    0.2026   60.3238 C.2     1  ZINC000767361237    0.5700
     30 O30       -10.6407    0.9919   59.5499 O.2     1  ZINC000767361237   -0.4600
     31 C31        -8.9285    0.9573   52.7366 C.ar    1  ZINC000767361237   -0.1100
     32 C32        -7.6975    1.3942   52.2840 C.ar    1  ZINC000767361237   -0.1200
     33 H33        -4.7860    0.8079   51.8044 H       1  ZINC000767361237    0.0700
     34 H34        -5.3008    0.5074   50.1273 H       1  ZINC000767361237    0.0700
     35 H35        -5.5895    2.0964   50.8757 H       1  ZINC000767361237    0.0700
     36 H36        -6.6732   -1.4100   50.7140 H       1  ZINC000767361237    0.1200
     37 H37        -8.8631   -2.1902   51.5257 H       1  ZINC000767361237    0.1200
     38 H38       -11.9195   -0.5783   54.7133 H       1  ZINC000767361237    0.0800
     39 H39       -10.1694   -0.5662   55.0381 H       1  ZINC000767361237    0.0700
     40 H40       -10.9481    0.8558   54.3033 H       1  ZINC000767361237    0.0600
     41 H41       -10.9333   -3.8217   51.6765 H       1  ZINC000767361237    0.3900
     42 H42       -13.0248   -2.5149   56.3313 H       1  ZINC000767361237    0.1100
     43 H43       -12.6586   -4.2476   56.1523 H       1  ZINC000767361237    0.1100
     44 H44       -11.8963   -1.1686   57.9275 H       1  ZINC000767361237    0.1100
     45 H45       -11.9580   -2.0750   59.4582 H       1  ZINC000767361237    0.1100
     46 H46        -9.4066   -2.6313   58.6960 H       1  ZINC000767361237    0.1100
     47 H47        -9.6017   -1.0278   57.9484 H       1  ZINC000767361237    0.1100
     48 H48        -8.3859   -1.6919   63.9424 H       1  ZINC000767361237    0.1400
     49 H49        -8.6281    0.2792   65.4027 H       1  ZINC000767361237    0.1400
     50 H50        -9.6127    2.3533   64.5350 H       1  ZINC000767361237    0.1400
     51 H51       -10.3700    2.4892   62.1931 H       1  ZINC000767361237    0.1400
     52 H52        -9.5620    1.6223   53.3048 H       1  ZINC000767361237    0.1200
     53 H53        -7.3704    2.4013   52.4963 H       1  ZINC000767361237    0.1200
@<TRIPOS>BOND
     1     1     2    1
     2     1    33    1
     3     1    34    1
     4     1    35    1
     5     2    32   ar
     6     2     3   ar
     7     3     4   ar
     8     3    36    1
     9     4     5   ar
    10     4    37    1
    11     5     6    1
    12     5    31   ar
    13     6     7    1
    14     6     8    1
    15     6     9    1
    16     8    38    1
    17     8    39    1
    18     8    40    1
    19     9    10    1
    20     9    11    1
    21     9    12    1
    22    11    41    1
    23    12    13    2
    24    12    14    1
    25    14    15    1
    26    15    16    1
    27    15    42    1
    28    15    43    1
    29    16    17    2
    30    16    18    1
    31    18    19    1
    32    18    44    1
    33    18    45    1
    34    19    20    1
    35    19    46    1
    36    19    47    1
    37    20    29   am
    38    20    21   am
    39    21    22    2
    40    21    23    1
    41    23    28   ar
    42    23    24   ar
    43    24    25   ar
    44    24    48    1
    45    25    26   ar
    46    25    49    1
    47    26    27   ar
    48    26    50    1
    49    27    28   ar
    50    27    51    1
    51    28    29    1
    52    29    30    2
    53    31    32   ar
    54    31    52    1
    55    32    53    1
@<TRIPOS>SUBSTRUCTURE
     1 ZINC000767361237        1 TEMP              0 ****  ****    0 ROOT


##########                                Name:    ZINC000508782983
##########                DOCK_Rotatable_Bonds:                   9
##########                         Heavy_Atoms:                  27
##########                    Molecular_Weight:             373.458
##########                DOCK_Rotatable_Bonds:                   9
##########                       Formal_Charge:          -0.0200006
##########                     HBond_Acceptors:                   9
##########                        HBond_Donors:                   2
##########                         Heavy_Atoms:                  27
##########                          Grid_Score:          -39.404694
##########                     Grid_vdw_energy:          -36.732613
##########                      Grid_es_energy:           -2.672081
##########           Internal_energy_repulsive:           15.649452

@<TRIPOS>MOLECULE
ZINC000508782983
 54 56 1 0 0
SMALL
USER_CHARGES


@<TRIPOS>ATOM
      1 C1         -8.8552    0.9201   55.3910 C.3     1  ZINC000508782983   -0.1500
      2 C2        -10.2474    0.8444   54.7610 C.3     1  ZINC000508782983   -0.1100
      3 C3        -11.1702    1.8586   55.4399 C.3     1  ZINC000508782983   -0.1500
      4 C4        -10.1495    1.1635   53.2679 C.3     1  ZINC000508782983    0.1000
      5 N5         -9.3274    0.1485   52.6044 N.pl3   1  ZINC000508782983   -0.4400
      6 C6         -7.9800    0.2183   52.3738 C.2     1  ZINC000508782983   -0.0400
      7 C7         -7.6330   -0.9201   51.7436 C.2     1  ZINC000508782983   -0.0300
      8 N8         -8.7385   -1.6648   51.5935 N.2     1  ZINC000508782983   -0.4700
      9 C9         -9.7564   -1.0331   52.1112 C.2     1  ZINC000508782983    0.1700
     10 C10       -11.1769   -1.5352   52.1446 C.3     1  ZINC000508782983    0.2100
     11 N11       -11.2798   -2.6467   53.0934 N.am    1  ZINC000508782983   -0.6900
     12 C12       -12.4203   -2.8387   53.7854 C.2     1  ZINC000508782983    0.5100
     13 O13       -13.3615   -2.0900   53.6236 O.2     1  ZINC000508782983   -0.5100
     14 C14       -12.5259   -3.9737   54.7520 C.2     1  ZINC000508782983    0.5100
     15 O15       -12.8510   -5.0754   54.3609 O.2     1  ZINC000508782983   -0.5200
     16 N16       -12.2600   -3.7735   56.0580 N.am    1  ZINC000508782983   -0.5800
     17 C17       -12.3518   -4.8779   57.0250 C.3     1  ZINC000508782983    0.0800
     18 C18       -11.0502   -4.9277   57.8322 C.3     1  ZINC000508782983    0.0400
     19 N19       -10.7918   -3.6067   58.4206 N.3     1  ZINC000508782983   -0.5400
     20 C20        -9.6478   -3.6551   59.3409 C.3     1  ZINC000508782983    0.1400
     21 C21        -9.7551   -2.5277   60.3352 C.2     1  ZINC000508782983    0.2100
     22 N22       -10.8388   -1.8531   60.6063 N.2     1  ZINC000508782983   -0.4900
     23 C23       -10.5628   -0.9286   61.5380 C.2     1  ZINC000508782983   -0.0300
     24 C24        -9.2587   -1.0342   61.8564 C.2     1  ZINC000508782983   -0.0500
     25 N25        -8.7469   -2.0521   61.0975 N.pl3   1  ZINC000508782983   -0.5600
     26 C26       -10.5876   -2.5904   57.3797 C.3     1  ZINC000508782983    0.0400
     27 C27       -11.8644   -2.4462   56.5530 C.3     1  ZINC000508782983    0.1100
     28 H28        -8.9249    0.6928   56.4548 H       1  ZINC000508782983    0.0700
     29 H29        -8.1978    0.1976   54.9074 H       1  ZINC000508782983    0.0600
     30 H30        -8.4511    1.9238   55.2597 H       1  ZINC000508782983    0.0600
     31 H31       -10.6516   -0.1593   54.8924 H       1  ZINC000508782983    0.0800
     32 H32       -10.7275    2.8526   55.3755 H       1  ZINC000508782983    0.0600
     33 H33       -12.1391    1.8594   54.9406 H       1  ZINC000508782983    0.0600
     34 H34       -11.3013    1.5864   56.4872 H       1  ZINC000508782983    0.0600
     35 H35       -11.1479    1.1652   52.8306 H       1  ZINC000508782983    0.1000
     36 H36        -9.6930    2.1443   53.1352 H       1  ZINC000508782983    0.0900
     37 H37        -7.3216    1.0304   52.6449 H       1  ZINC000508782983    0.1800
     38 H38        -6.6389   -1.1869   51.4165 H       1  ZINC000508782983    0.1700
     39 H39       -11.8401   -0.7285   52.4568 H       1  ZINC000508782983    0.0900
     40 H40       -11.4646   -1.8782   51.1508 H       1  ZINC000508782983    0.1100
     41 H41       -10.5270   -3.2445   53.2237 H       1  ZINC000508782983    0.4200
     42 H42       -13.1930   -4.7072   57.6969 H       1  ZINC000508782983    0.0800
     43 H43       -12.4894   -5.8195   56.4935 H       1  ZINC000508782983    0.1400
     44 H44       -11.1431   -5.6680   58.6268 H       1  ZINC000508782983    0.0900
     45 H45       -10.2248   -5.2008   57.1748 H       1  ZINC000508782983    0.0400
     46 H46        -9.6474   -4.6077   59.8704 H       1  ZINC000508782983    0.0900
     47 H47        -8.7217   -3.5535   58.7750 H       1  ZINC000508782983    0.0700
     48 H48       -11.2638   -0.2231   61.9591 H       1  ZINC000508782983    0.1700
     49 H49        -8.7207   -0.4341   62.5754 H       1  ZINC000508782983    0.1800
     50 H50        -7.8302   -2.3688   61.1024 H       1  ZINC000508782983    0.4200
     51 H51       -10.3450   -1.6357   57.8463 H       1  ZINC000508782983    0.1100
     52 H52        -9.7686   -2.8961   56.7286 H       1  ZINC000508782983    0.0400
     53 H53       -11.6817   -1.7790   55.7107 H       1  ZINC000508782983    0.1000
     54 H54       -12.6613   -2.0424   57.1775 H       1  ZINC000508782983    0.0800
@<TRIPOS>BOND
     1     1     2    1
     2     1    28    1
     3     1    29    1
     4     1    30    1
     5     2     3    1
     6     2     4    1
     7     2    31    1
     8     3    32    1
     9     3    33    1
    10     3    34    1
    11     4     5    1
    12     4    35    1
    13     4    36    1
    14     5     9    1
    15     5     6    1
    16     6     7    2
    17     6    37    1
    18     7     8    1
    19     7    38    1
    20     8     9    2
    21     9    10    1
    22    10    11    1
    23    10    39    1
    24    10    40    1
    25    11    12   am
    26    11    41    1
    27    12    13    2
    28    12    14    1
    29    14    15    2
    30    14    16   am
    31    16    27    1
    32    16    17    1
    33    17    18    1
    34    17    42    1
    35    17    43    1
    36    18    19    1
    37    18    44    1
    38    18    45    1
    39    19    20    1
    40    19    26    1
    41    20    21    1
    42    20    46    1
    43    20    47    1
    44    21    25    1
    45    21    22    2
    46    22    23    1
    47    23    24    2
    48    23    48    1
    49    24    25    1
    50    24    49    1
    51    25    50    1
    52    26    27    1
    53    26    51    1
    54    26    52    1
    55    27    53    1
    56    27    54    1
@<TRIPOS>SUBSTRUCTURE
     1 ZINC000508782983        1 TEMP              0 ****  ****    0 ROOT


##########                                Name:    ZINC000546142192
##########                DOCK_Rotatable_Bonds:                  12
##########                         Heavy_Atoms:                  31
##########                    Molecular_Weight:             420.511
##########                DOCK_Rotatable_Bonds:                  12
##########                       Formal_Charge:          -0.0599997
##########                     HBond_Acceptors:                   7
##########                        HBond_Donors:                   2
##########                         Heavy_Atoms:                  31
##########                          Grid_Score:          -39.390816
##########                     Grid_vdw_energy:          -37.193115
##########                      Grid_es_energy:           -2.197702
##########           Internal_energy_repulsive:           12.233197

@<TRIPOS>MOLECULE
ZINC000546142192
 59 61 1 0 0
SMALL
USER_CHARGES


@<TRIPOS>ATOM
      1 C1        -11.3413   -2.9094   52.6279 C.3     1  ZINC000546142192    0.0300
      2 O2        -11.9603   -3.5356   53.7825 O.3     1  ZINC000546142192   -0.3600
      3 C3        -12.2368   -2.7436   54.8303 C.2     1  ZINC000546142192    0.4600
      4 O4        -12.4336   -1.5635   54.6602 O.2     1  ZINC000546142192   -0.5100
      5 C5        -12.3021   -3.3260   56.2187 C.3     1  ZINC000546142192   -0.0800
      6 H6        -12.4935   -2.5299   56.9380 H       1  ZINC000546142192    0.1100
      7 C7        -13.4304   -4.3570   56.2866 C.3     1  ZINC000546142192   -0.1500
      8 C8        -10.9710   -4.0038   56.5503 C.3     1  ZINC000546142192   -0.0600
      9 C9        -10.3570   -3.3415   57.7568 C.ar    1  ZINC000546142192   -0.1000
     10 C10        -9.9157   -2.0335   57.6759 C.ar    1  ZINC000546142192   -0.0900
     11 C11        -9.3529   -1.4236   58.7799 C.ar    1  ZINC000546142192   -0.1200
     12 C12        -9.2305   -2.1253   59.9719 C.ar    1  ZINC000546142192    0.1600
     13 N13        -8.6611   -1.5100   61.0925 N.am    1  ZINC000546142192   -0.6900
     14 C14        -9.4473   -0.8795   61.9873 C.2     1  ZINC000546142192    0.7100
     15 O15       -10.6513   -0.8453   61.8210 O.2     1  ZINC000546142192   -0.5700
     16 N16        -8.8991   -0.2870   63.0666 N.am    1  ZINC000546142192   -0.7400
     17 C17        -9.7536    0.3998   64.0384 C.3     1  ZINC000546142192    0.2300
     18 C18        -8.9753    0.6478   65.3048 C.2     1  ZINC000546142192    0.1800
     19 N19        -8.2888   -0.2458   65.9629 N.2     1  ZINC000546142192   -0.4700
     20 C20        -7.7287    0.3296   67.0372 C.2     1  ZINC000546142192   -0.0300
     21 C21        -8.0814    1.6293   67.0451 C.2     1  ZINC000546142192   -0.0400
     22 N22        -8.8679    1.8329   65.9434 N.pl3   1  ZINC000546142192   -0.4500
     23 C23        -9.4849    3.0981   65.5375 C.3     1  ZINC000546142192    0.1100
     24 C24       -10.5588    3.4909   66.5539 C.3     1  ZINC000546142192   -0.0900
     25 C25       -11.7339    2.5554   66.4300 C.ar    1  ZINC000546142192   -0.0900
     26 C26       -12.3811    2.4155   65.2166 C.ar    1  ZINC000546142192   -0.1100
     27 C27       -13.4589    1.5574   65.1030 C.ar    1  ZINC000546142192   -0.1200
     28 C28       -13.8892    0.8389   66.2028 C.ar    1  ZINC000546142192   -0.1200
     29 C29       -13.2414    0.9781   67.4160 C.ar    1  ZINC000546142192   -0.1200
     30 C30       -12.1609    1.8330   67.5285 C.ar    1  ZINC000546142192   -0.1100
     31 C31        -9.6746   -3.4387   60.0498 C.ar    1  ZINC000546142192   -0.1500
     32 C32       -10.2413   -4.0412   58.9438 C.ar    1  ZINC000546142192   -0.0900
     33 H33       -10.3887   -2.4683   52.9210 H       1  ZINC000546142192    0.0600
     34 H34       -11.1720   -3.6591   51.8550 H       1  ZINC000546142192    0.1000
     35 H35       -11.9986   -2.1307   52.2410 H       1  ZINC000546142192    0.0600
     36 H36       -13.2389   -5.1532   55.5673 H       1  ZINC000546142192    0.0600
     37 H37       -13.4775   -4.7783   57.2908 H       1  ZINC000546142192    0.0800
     38 H38       -14.3786   -3.8741   56.0504 H       1  ZINC000546142192    0.0700
     39 H39       -11.1437   -5.0587   56.7635 H       1  ZINC000546142192    0.0800
     40 H40       -10.2943   -3.9108   55.7009 H       1  ZINC000546142192    0.0800
     41 H41       -10.0109   -1.4884   56.7484 H       1  ZINC000546142192    0.1300
     42 H42        -9.0081   -0.4022   58.7160 H       1  ZINC000546142192    0.1400
     43 H43        -7.7006   -1.5373   61.2252 H       1  ZINC000546142192    0.4100
     44 H44        -7.9388   -0.3154   63.1999 H       1  ZINC000546142192    0.4000
     45 H45       -10.0841    1.3518   63.6228 H       1  ZINC000546142192    0.0800
     46 H46       -10.6218   -0.2204   64.2610 H       1  ZINC000546142192    0.1000
     47 H47        -7.1042   -0.1630   67.7679 H       1  ZINC000546142192    0.1700
     48 H48        -7.7954    2.3695   67.7775 H       1  ZINC000546142192    0.1800
     49 H49        -8.7231    3.8766   65.4946 H       1  ZINC000546142192    0.1000
     50 H50        -9.9406    2.9812   64.5543 H       1  ZINC000546142192    0.0900
     51 H51       -10.1471    3.4258   67.5611 H       1  ZINC000546142192    0.0800
     52 H52       -10.8859    4.5126   66.3606 H       1  ZINC000546142192    0.0800
     53 H53       -12.0449    2.9769   64.3575 H       1  ZINC000546142192    0.1200
     54 H54       -13.9649    1.4486   64.1551 H       1  ZINC000546142192    0.1200
     55 H55       -14.7317    0.1690   66.1142 H       1  ZINC000546142192    0.1200
     56 H56       -13.5778    0.4170   68.2753 H       1  ZINC000546142192    0.1200
     57 H57       -11.6548    1.9418   68.4764 H       1  ZINC000546142192    0.1200
     58 H58        -9.5808   -3.9871   60.9756 H       1  ZINC000546142192    0.1300
     59 H59       -10.5873   -5.0627   59.0039 H       1  ZINC000546142192    0.1300
@<TRIPOS>BOND
     1     1     2    1
     2     1    33    1
     3     1    34    1
     4     1    35    1
     5     2     3    1
     6     3     4    2
     7     3     5    1
     8     5     6    1
     9     5     7    1
    10     5     8    1
    11     7    36    1
    12     7    37    1
    13     7    38    1
    14     8     9    1
    15     8    39    1
    16     8    40    1
    17     9    32   ar
    18     9    10   ar
    19    10    11   ar
    20    10    41    1
    21    11    12   ar
    22    11    42    1
    23    12    13    1
    24    12    31   ar
    25    13    14   am
    26    13    43    1
    27    14    15    2
    28    14    16   am
    29    16    17    1
    30    16    44    1
    31    17    18    1
    32    17    45    1
    33    17    46    1
    34    18    22    1
    35    18    19    2
    36    19    20    1
    37    20    21    2
    38    20    47    1
    39    21    22    1
    40    21    48    1
    41    22    23    1
    42    23    24    1
    43    23    49    1
    44    23    50    1
    45    24    25    1
    46    24    51    1
    47    24    52    1
    48    25    30   ar
    49    25    26   ar
    50    26    27   ar
    51    26    53    1
    52    27    28   ar
    53    27    54    1
    54    28    29   ar
    55    28    55    1
    56    29    30   ar
    57    29    56    1
    58    30    57    1
    59    31    32   ar
    60    31    58    1
    61    32    59    1
@<TRIPOS>SUBSTRUCTURE
     1 ZINC000546142192        1 TEMP              0 ****  ****    0 ROOT


##########                                Name:     oleObject70.pdb
##########                DOCK_Rotatable_Bonds:                   9
##########                         Heavy_Atoms:                  35
##########                    Molecular_Weight:             504.458
##########                DOCK_Rotatable_Bonds:                   9
##########                       Formal_Charge:          0.00010002
##########                     HBond_Acceptors:                   6
##########                        HBond_Donors:                   2
##########                         Heavy_Atoms:                  35
##########                          Grid_Score:          -39.353523
##########                     Grid_vdw_energy:          -40.092289
##########                      Grid_es_energy:            0.738767
##########           Internal_energy_repulsive:           40.313778

@<TRIPOS>MOLECULE
oleObject70.pdb
 62 65 1 0 0
SMALL
NO_CHARGES


@<TRIPOS>ATOM
      1 C           1.3954    2.4549   52.8065 C.ar    1  UNL        -0.0620
      2 C           0.4821    3.4176   53.2594 C.ar    1  UNL        -0.0590
      3 C          -0.6085    3.8088   52.4585 C.ar    1  UNL        -0.0456
      4 C          -0.7924    3.2159   51.1831 C.ar    1  UNL        -0.0187
      5 C           0.1448    2.2592   50.7357 C.ar    1  UNL        -0.0565
      6 C           1.2285    1.8788   51.5407 C.ar    1  UNL        -0.0619
      7 C          -1.9722    3.6179   50.2801 C.3     1  UNL         0.0909
      8 C          -1.7403    3.3345   48.7858 C.ar    1  UNL         0.0681
      9 C          -0.9238    4.1725   47.9844 C.ar    1  UNL        -0.0272
     10 C          -0.7643    3.8489   46.6237 C.ar    1  UNL        -0.0559
     11 C          -1.4094    2.7148   46.1100 C.ar    1  UNL        -0.0435
     12 C          -2.1925    1.9376   46.9759 C.ar    1  UNL         0.0272
     13 N          -2.3508    2.2383   48.2781 N.ar    1  UNL        -0.2587
     14 C          -0.2236    5.4060   48.5439 C.3     1  UNL        -0.0379
     15 N          -3.2776    3.1571   50.8025 N.am    1  UNL        -0.2987
     16 C          -3.8471    1.9026   50.6228 C.2     1  UNL         0.2437
     17 O          -3.2966    1.0139   49.9957 O.2     1  UNL        -0.2719
     18 C          -5.1972    1.6849   51.2632 C.ar    1  UNL         0.0371
     19 C          -5.9358    0.4951   51.0740 C.ar    1  UNL        -0.0494
     20 C          -7.1885    0.3252   51.6864 C.ar    1  UNL        -0.0570
     21 C          -7.7278    1.3374   52.4975 C.ar    1  UNL        -0.0341
     22 C          -6.9993    2.5224   52.6928 C.ar    1  UNL        -0.0570
     23 C          -5.7473    2.6941   52.0805 C.ar    1  UNL        -0.0494
     24 C          -9.0799    1.1472   53.1642 C.3     1  UNL         0.0208
     25 N          -8.9694    0.3158   54.3694 N.4     1  UNL        -0.3086
     26 C         -10.1003    0.4610   55.2954 C.3     1  UNL         0.0223
     27 C          -9.9932   -0.5095   56.4639 C.ar    1  UNL        -0.0154
     28 C          -9.2689   -0.1311   57.6106 C.ar    1  UNL        -0.0548
     29 C          -9.1581   -1.0049   58.7045 C.ar    1  UNL        -0.0431
     30 C          -9.7739   -2.2652   58.6592 C.ar    1  UNL         0.0421
     31 C         -10.5011   -2.6513   57.5224 C.ar    1  UNL        -0.0245
     32 C         -10.6127   -1.7780   56.4271 C.ar    1  UNL         0.0465
     33 CL        -11.5397   -2.3025   55.0331 Cl      1  UNL        -0.0839
     34 CL         -9.6374   -3.3551   60.0225 Cl      1  UNL        -0.0843
     35 C          -1.5535    4.8809   52.9921 C.3     1  UNL        -0.0394
     36 H           2.2353    2.1642   53.4307 H       1  UNL         0.0623
     37 H           0.6284    3.8664   54.2379 H       1  UNL         0.0626
     38 H           0.0454    1.8102   49.7531 H       1  UNL         0.0627
     39 H           1.9403    1.1418   51.1801 H       1  UNL         0.0623
     40 H          -2.0438    4.7070   50.3568 H       1  UNL         0.0624
     41 H          -0.1521    4.4669   45.9730 H       1  UNL         0.0627
     42 H          -1.3055    2.4432   45.0638 H       1  UNL         0.0639
     43 H          -2.7105    1.0490   46.6177 H       1  UNL         0.0840
     44 H          -0.9509    6.1603   48.8679 H       1  UNL         0.0280
     45 H           0.4222    5.8779   47.7929 H       1  UNL         0.0280
     46 H           0.4099    5.1501   49.4017 H       1  UNL         0.0280
     47 H          -3.8129    3.8254   51.3391 H       1  UNL         0.1508
     48 H          -5.5527   -0.3092   50.4545 H       1  UNL         0.0631
     49 H          -7.7406   -0.5980   51.5331 H       1  UNL         0.0626
     50 H          -7.4016    3.3115   53.3220 H       1  UNL         0.0626
     51 H          -5.2028    3.6195   52.2475 H       1  UNL         0.0631
     52 H          -9.7699    0.6778   52.4509 H       1  UNL         0.0479
     53 H          -9.4930    2.1296   53.4278 H       1  UNL         0.0479
     54 H          -8.1061    0.5515   54.8585 H       1  UNL         0.1229
     55 H         -11.0396    0.2779   54.7577 H       1  UNL         0.0480
     56 H         -10.1414    1.4887   55.6787 H       1  UNL         0.0480
     57 H          -8.7930    0.8446   57.6557 H       1  UNL         0.0627
     58 H          -8.5976   -0.7040   59.5851 H       1  UNL         0.0639
     59 H         -10.9797   -3.6260   57.4907 H       1  UNL         0.0654
     60 H          -1.1760    5.3294   53.9196 H       1  UNL         0.0280
     61 H          -2.5431    4.4607   53.2103 H       1  UNL         0.0280
     62 H          -1.6796    5.6954   52.2677 H       1  UNL         0.0280
@<TRIPOS>BOND
     1     1     2   ar
     2     1     6   ar
     3     1    36    1
     4     2     3   ar
     5     2    37    1
     6     3     4   ar
     7     3    35    1
     8     4     5   ar
     9     4     7    1
    10     5     6   ar
    11     5    38    1
    12     6    39    1
    13     7     8    1
    14     7    15    1
    15     7    40    1
    16     8     9   ar
    17     8    13   ar
    18     9    10   ar
    19     9    14    1
    20    10    11   ar
    21    10    41    1
    22    11    12   ar
    23    11    42    1
    24    12    13   ar
    25    12    43    1
    26    14    44    1
    27    14    45    1
    28    14    46    1
    29    15    16   am
    30    15    47    1
    31    16    17    2
    32    16    18    1
    33    18    19   ar
    34    18    23   ar
    35    19    20   ar
    36    19    48    1
    37    20    21   ar
    38    20    49    1
    39    21    22   ar
    40    21    24    1
    41    22    23   ar
    42    22    50    1
    43    23    51    1
    44    24    25    1
    45    24    52    1
    46    24    53    1
    47    25    26    1
    48    25    54    1
    49    26    27    1
    50    26    55    1
    51    26    56    1
    52    27    28   ar
    53    27    32   ar
    54    28    29   ar
    55    28    57    1
    56    29    30   ar
    57    29    58    1
    58    30    31   ar
    59    30    34    1
    60    31    32   ar
    61    31    59    1
    62    32    33    1
    63    35    60    1
    64    35    61    1
    65    35    62    1
@<TRIPOS>SUBSTRUCTURE
     1 UNL         1 TEMP              0 ****  ****    0 ROOT


##########                                Name:    ZINC000114394234
##########                DOCK_Rotatable_Bonds:                   9
##########                         Heavy_Atoms:                  27
##########                    Molecular_Weight:             365.392
##########                DOCK_Rotatable_Bonds:                   9
##########                       Formal_Charge:           0.0300002
##########                     HBond_Acceptors:                   8
##########                        HBond_Donors:                   3
##########                         Heavy_Atoms:                  27
##########                          Grid_Score:          -39.339634
##########                     Grid_vdw_energy:          -37.535347
##########                      Grid_es_energy:           -1.804287
##########           Internal_energy_repulsive:            9.682137

@<TRIPOS>MOLECULE
ZINC000114394234
 46 48 1 0 0
SMALL
USER_CHARGES


@<TRIPOS>ATOM
      1 C1        -13.3874   -3.5285   53.8178 C.3     1  ZINC000114394234   -0.1600
      2 C2        -12.0268   -3.4528   54.5134 C.3     1  ZINC000114394234    0.1300
      3 H3        -11.4238   -4.3145   54.2269 H       1  ZINC000114394234    0.1200
      4 N4        -11.3411   -2.2218   54.1121 N.am    1  ZINC000114394234   -0.7100
      5 C5        -10.5904   -2.2028   52.9929 C.2     1  ZINC000114394234    0.5200
      6 O6        -10.4812   -3.2052   52.3188 O.2     1  ZINC000114394234   -0.5100
      7 C7         -9.8865   -0.9362   52.5792 C.3     1  ZINC000114394234    0.0400
      8 O8         -8.6536   -1.2648   51.9357 O.3     1  ZINC000114394234   -0.2900
      9 C9         -7.8118   -0.2359   51.6532 C.ar    1  ZINC000114394234    0.1300
     10 C10        -6.6110   -0.4794   51.0024 C.ar    1  ZINC000114394234   -0.2100
     11 C11        -5.7572    0.5682   50.7158 C.ar    1  ZINC000114394234   -0.0800
     12 C12        -6.0983    1.8583   51.0775 C.ar    1  ZINC000114394234   -0.1600
     13 C13        -7.2943    2.1035   51.7267 C.ar    1  ZINC000114394234   -0.0800
     14 C14        -8.1544    1.0602   52.0099 C.ar    1  ZINC000114394234   -0.1500
     15 C15       -12.2255   -3.4530   56.0072 C.2     1  ZINC000114394234    0.5100
     16 O16       -12.2609   -4.5027   56.6141 O.2     1  ZINC000114394234   -0.5100
     17 N17       -12.3641   -2.2871   56.6688 N.am    1  ZINC000114394234   -0.6700
     18 C18       -12.5486   -2.2874   58.0559 C.ar    1  ZINC000114394234    0.1300
     19 C19       -13.8040   -2.5504   58.5898 C.ar    1  ZINC000114394234   -0.1200
     20 C20       -13.9901   -2.5516   59.9594 C.ar    1  ZINC000114394234   -0.1000
     21 C21       -12.9301   -2.2912   60.8043 C.ar    1  ZINC000114394234   -0.0900
     22 C22       -11.6672   -2.0257   60.2774 C.ar    1  ZINC000114394234    0.0000
     23 C23       -10.5266   -1.7450   61.1844 C.2     1  ZINC000114394234    0.2700
     24 N24        -9.3964   -2.4160   61.2251 N.2     1  ZINC000114394234   -0.3000
     25 N25        -8.6064   -1.8167   62.2194 N.pl3   1  ZINC000114394234   -0.4800
     26 C26        -9.3307   -0.8010   62.7228 C.2     1  ZINC000114394234    0.2700
     27 N27       -10.4754   -0.7622   62.0937 N.2     1  ZINC000114394234   -0.5300
     28 C28       -11.4773   -2.0309   58.8985 C.ar    1  ZINC000114394234   -0.0800
     29 H29       -13.9904   -2.6669   54.1042 H       1  ZINC000114394234    0.0700
     30 H30       -13.2437   -3.5284   52.7373 H       1  ZINC000114394234    0.0800
     31 H31       -13.8975   -4.4444   54.1164 H       1  ZINC000114394234    0.0800
     32 H32       -11.4274   -1.4206   54.6519 H       1  ZINC000114394234    0.4100
     33 H33       -10.5190   -0.3778   51.8891 H       1  ZINC000114394234    0.1000
     34 H34        -9.6853   -0.3277   53.4609 H       1  ZINC000114394234    0.1000
     35 H35        -6.3437   -1.4871   50.7203 H       1  ZINC000114394234    0.1300
     36 H36        -4.8223    0.3791   50.2092 H       1  ZINC000114394234    0.1300
     37 H37        -5.4294    2.6759   50.8529 H       1  ZINC000114394234    0.1300
     38 H38        -7.5583    3.1121   52.0084 H       1  ZINC000114394234    0.1300
     39 H39        -9.0884    1.2523   52.5170 H       1  ZINC000114394234    0.1300
     40 H40       -12.3357   -1.4477   56.1835 H       1  ZINC000114394234    0.4200
     41 H41       -14.6367   -2.7542   57.9329 H       1  ZINC000114394234    0.1300
     42 H42       -14.9679   -2.7566   60.3697 H       1  ZINC000114394234    0.1400
     43 H43       -13.0793   -2.2925   61.8740 H       1  ZINC000114394234    0.1400
     44 H44        -7.7139   -2.0830   62.4902 H       1  ZINC000114394234    0.4400
     45 H45        -9.0179   -0.1296   63.5088 H       1  ZINC000114394234    0.2300
     46 H46       -10.5007   -1.8259   58.4855 H       1  ZINC000114394234    0.1500
@<TRIPOS>BOND
     1     1     2    1
     2     1    29    1
     3     1    30    1
     4     1    31    1
     5     2     3    1
     6     2     4    1
     7     2    15    1
     8     4     5   am
     9     4    32    1
    10     5     6    2
    11     5     7    1
    12     7     8    1
    13     7    33    1
    14     7    34    1
    15     8     9    1
    16     9    14   ar
    17     9    10   ar
    18    10    11   ar
    19    10    35    1
    20    11    12   ar
    21    11    36    1
    22    12    13   ar
    23    12    37    1
    24    13    14   ar
    25    13    38    1
    26    14    39    1
    27    15    16    2
    28    15    17   am
    29    17    18    1
    30    17    40    1
    31    18    28   ar
    32    18    19   ar
    33    19    20   ar
    34    19    41    1
    35    20    21   ar
    36    20    42    1
    37    21    22   ar
    38    21    43    1
    39    22    23    1
    40    22    28   ar
    41    23    27    1
    42    23    24    2
    43    24    25    1
    44    25    26    1
    45    25    44    1
    46    26    27    2
    47    26    45    1
    48    28    46    1
@<TRIPOS>SUBSTRUCTURE
     1 ZINC000114394234        1 TEMP              0 ****  ****    0 ROOT


##########                                Name:    ZINC000506566356
##########                DOCK_Rotatable_Bonds:                  10
##########                         Heavy_Atoms:                  28
##########                    Molecular_Weight:               415.9
##########                DOCK_Rotatable_Bonds:                  10
##########                       Formal_Charge:           0.0199998
##########                     HBond_Acceptors:                   8
##########                        HBond_Donors:                   2
##########                         Heavy_Atoms:                  28
##########                          Grid_Score:          -39.310005
##########                     Grid_vdw_energy:          -37.687168
##########                      Grid_es_energy:           -1.622837
##########           Internal_energy_repulsive:            6.077088

@<TRIPOS>MOLECULE
ZINC000506566356
 46 48 1 0 0
SMALL
USER_CHARGES


@<TRIPOS>ATOM
      1 O1         -8.4753   -1.7094   51.3799 O.2     1  ZINC000506566356   -0.5100
      2 C2         -8.8684   -1.0198   52.2980 C.2     1  ZINC000506566356    0.5100
      3 N3         -8.2894    0.1727   52.5410 N.am    1  ZINC000506566356   -0.7000
      4 C4         -7.1816    0.6340   51.7007 C.3     1  ZINC000506566356    0.1200
      5 C5         -6.8979    2.1084   51.9949 C.3     1  ZINC000506566356   -0.0900
      6 C6         -5.4470    2.4060   51.7164 C.ar    1  ZINC000506566356   -0.0700
      7 C7         -4.7510    3.2762   52.5341 C.ar    1  ZINC000506566356   -0.1100
      8 C8         -3.4197    3.5494   52.2796 C.ar    1  ZINC000506566356   -0.1000
      9 C9         -2.7844    2.9529   51.2071 C.ar    1  ZINC000506566356   -0.1100
     10 C10        -3.4808    2.0817   50.3881 C.ar    1  ZINC000506566356   -0.0300
     11 Cl11       -2.6833    1.3315   49.0409 Cl      1  ZINC000506566356   -0.0700
     12 C12        -4.8111    1.8043   50.6466 C.ar    1  ZINC000506566356   -0.1000
     13 C13        -9.9976   -1.4901   53.1547 C.2     1  ZINC000506566356    0.5100
     14 O14       -10.4968   -0.7388   53.9670 O.2     1  ZINC000506566356   -0.5000
     15 N15       -10.4625   -2.7485   53.0259 N.am    1  ZINC000506566356   -0.6300
     16 C16       -11.5202   -3.1890   53.8283 C.ar    1  ZINC000506566356    0.1100
     17 C17       -11.2621   -3.7831   55.0553 C.ar    1  ZINC000506566356   -0.0800
     18 C18       -12.3091   -4.2175   55.8462 C.ar    1  ZINC000506566356   -0.1400
     19 C19       -13.6144   -4.0617   55.4180 C.ar    1  ZINC000506566356   -0.0900
     20 C20       -13.8799   -3.4711   54.1962 C.ar    1  ZINC000506566356   -0.1900
     21 C21       -12.8370   -3.0272   53.3999 C.ar    1  ZINC000506566356    0.1200
     22 O22       -13.0964   -2.4463   52.1984 O.3     1  ZINC000506566356   -0.3100
     23 C23       -13.5541   -1.0927   52.2176 C.3     1  ZINC000506566356    0.1400
     24 C24       -13.6600   -0.5781   50.8051 C.2     1  ZINC000506566356    0.0500
     25 C25       -14.1168   -1.3255   49.7958 C.2     1  ZINC000506566356   -0.2300
     26 S26       -14.0736   -0.3452   48.3323 S.3     1  ZINC000506566356    0.1400
     27 C27       -13.4457    0.9722   49.2232 C.2     1  ZINC000506566356    0.0200
     28 N28       -13.3150    0.6474   50.4651 N.2     1  ZINC000506566356   -0.4700
     29 H29        -8.6061    0.7256   53.2724 H       1  ZINC000506566356    0.4200
     30 H30        -6.2916    0.0427   51.9159 H       1  ZINC000506566356    0.0800
     31 H31        -7.4496    0.5181   50.6505 H       1  ZINC000506566356    0.0800
     32 H32        -7.5255    2.7330   51.3592 H       1  ZINC000506566356    0.0900
     33 H33        -7.1176    2.3187   53.0416 H       1  ZINC000506566356    0.0900
     34 H34        -5.2472    3.7432   53.3721 H       1  ZINC000506566356    0.1300
     35 H35        -2.8763    4.2295   52.9189 H       1  ZINC000506566356    0.1300
     36 H36        -1.7448    3.1670   51.0079 H       1  ZINC000506566356    0.1300
     37 H37        -5.3551    1.1243   50.0078 H       1  ZINC000506566356    0.1300
     38 H38       -10.0637   -3.3489   52.3767 H       1  ZINC000506566356    0.4300
     39 H39       -10.2435   -3.9063   55.3922 H       1  ZINC000506566356    0.1500
     40 H40       -12.1070   -4.6801   56.8009 H       1  ZINC000506566356    0.1300
     41 H41       -14.4292   -4.4027   56.0395 H       1  ZINC000506566356    0.1300
     42 H42       -14.9008   -3.3517   53.8646 H       1  ZINC000506566356    0.1400
     43 H43       -14.5328   -1.0469   52.6953 H       1  ZINC000506566356    0.0900
     44 H44       -12.8481   -0.4782   52.7761 H       1  ZINC000506566356    0.0900
     45 H45       -14.4531   -2.3494   49.8649 H       1  ZINC000506566356    0.1800
     46 H46       -13.1986    1.9378   48.8074 H       1  ZINC000506566356    0.2100
@<TRIPOS>BOND
     1     1     2    2
     2     2     3   am
     3     2    13    1
     4     3     4    1
     5     3    29    1
     6     4     5    1
     7     4    30    1
     8     4    31    1
     9     5     6    1
    10     5    32    1
    11     5    33    1
    12     6    12   ar
    13     6     7   ar
    14     7     8   ar
    15     7    34    1
    16     8     9   ar
    17     8    35    1
    18     9    10   ar
    19     9    36    1
    20    10    11    1
    21    10    12   ar
    22    12    37    1
    23    13    14    2
    24    13    15   am
    25    15    16    1
    26    15    38    1
    27    16    21   ar
    28    16    17   ar
    29    17    18   ar
    30    17    39    1
    31    18    19   ar
    32    18    40    1
    33    19    20   ar
    34    19    41    1
    35    20    21   ar
    36    20    42    1
    37    21    22    1
    38    22    23    1
    39    23    24    1
    40    23    43    1
    41    23    44    1
    42    24    28    1
    43    24    25    2
    44    25    26    1
    45    25    45    1
    46    26    27    1
    47    27    28    2
    48    27    46    1
@<TRIPOS>SUBSTRUCTURE
     1 ZINC000506566356        1 TEMP              0 ****  ****    0 ROOT


##########                                Name:    ZINC000474251633
##########                DOCK_Rotatable_Bonds:                   8
##########                         Heavy_Atoms:                  28
##########                    Molecular_Weight:             416.931
##########                DOCK_Rotatable_Bonds:                   8
##########                       Formal_Charge:          0.00999953
##########                     HBond_Acceptors:                   8
##########                        HBond_Donors:                   2
##########                         Heavy_Atoms:                  28
##########                          Grid_Score:          -39.273087
##########                     Grid_vdw_energy:          -38.099613
##########                      Grid_es_energy:           -1.173473
##########           Internal_energy_repulsive:           11.479696

@<TRIPOS>MOLECULE
ZINC000474251633
 49 52 1 0 0
SMALL
USER_CHARGES


@<TRIPOS>ATOM
      1 O1        -11.8158   -4.8532   53.0531 O.2     1  ZINC000474251633   -0.5300
      2 C2        -11.9841   -3.9510   53.8459 C.2     1  ZINC000474251633    0.5100
      3 C3        -12.7219   -4.2082   55.1346 C.3     1  ZINC000474251633    0.1000
      4 N4        -12.0515   -3.5035   56.2301 N.am    1  ZINC000474251633   -0.7100
      5 C5        -12.5784   -3.5293   57.4703 C.2     1  ZINC000474251633    0.5900
      6 O6        -13.6100   -4.1392   57.6804 O.2     1  ZINC000474251633   -0.5000
      7 C7        -11.9074   -2.8215   58.5679 C.2     1  ZINC000474251633   -0.2300
      8 C8        -10.7899   -3.2408   59.1731 C.2     1  ZINC000474251633    0.0400
      9 Cl9        -9.9842   -4.7092   58.7162 Cl      1  ZINC000474251633   -0.0100
     10 C10       -10.3118   -2.4126   60.2031 C.ar    1  ZINC000474251633   -0.0900
     11 C11        -9.1691   -2.5821   61.0202 C.ar    1  ZINC000474251633   -0.0600
     12 C12        -8.8622   -1.6653   61.9762 C.ar    1  ZINC000474251633   -0.1200
     13 C13        -9.6630   -0.5465   62.1687 C.ar    1  ZINC000474251633   -0.0800
     14 C14       -10.7798   -0.3542   61.3913 C.ar    1  ZINC000474251633   -0.0900
     15 C15       -11.1159   -1.2831   60.4012 C.ar    1  ZINC000474251633   -0.1200
     16 S16       -12.4565   -1.3060   59.2612 S.3     1  ZINC000474251633    0.1700
     17 N17       -11.5066   -2.7197   53.5771 N.am    1  ZINC000474251633   -0.7200
     18 C18       -10.7894   -2.4697   52.3243 C.3     1  ZINC000474251633    0.2100
     19 C19        -9.7477   -1.4034   52.5460 C.2     1  ZINC000474251633    0.0500
     20 N20        -9.8650   -0.3694   53.3389 N.2     1  ZINC000474251633   -0.2700
     21 N21        -8.6820    0.3772   53.2624 N.pl3   1  ZINC000474251633   -0.3600
     22 C22        -8.3950    1.6145   53.9925 C.3     1  ZINC000474251633    0.1500
     23 C23        -7.4881    2.5300   53.1445 C.3     1  ZINC000474251633   -0.1400
     24 C24        -8.4743    3.4940   52.4394 C.3     1  ZINC000474251633   -0.1300
     25 C25        -9.5375    3.7567   53.5347 C.3     1  ZINC000474251633   -0.1200
     26 C26        -9.6981    2.3945   54.2405 C.3     1  ZINC000474251633   -0.1400
     27 C27        -7.8537   -0.2447   52.3976 C.2     1  ZINC000474251633    0.0600
     28 C28        -8.4861   -1.3518   51.9442 C.2     1  ZINC000474251633   -0.2600
     29 H29       -13.7469   -3.8484   55.0445 H       1  ZINC000474251633    0.1100
     30 H30       -12.7293   -5.2783   55.3417 H       1  ZINC000474251633    0.1100
     31 H31       -11.2284   -3.0182   56.0628 H       1  ZINC000474251633    0.4100
     32 H32        -8.5362   -3.4464   60.8837 H       1  ZINC000474251633    0.1300
     33 H33        -7.9870   -1.8084   62.5925 H       1  ZINC000474251633    0.1400
     34 H34        -9.4074    0.1737   62.9318 H       1  ZINC000474251633    0.1400
     35 H35       -11.3996    0.5168   61.5452 H       1  ZINC000474251633    0.1400
     36 H36       -11.6378   -1.9991   54.2130 H       1  ZINC000474251633    0.4100
     37 H37       -10.3045   -3.3881   51.9937 H       1  ZINC000474251633    0.0900
     38 H38       -11.4941   -2.1362   51.5625 H       1  ZINC000474251633    0.0900
     39 H39        -7.9113    1.3841   54.9417 H       1  ZINC000474251633    0.1100
     40 H40        -6.8026    3.0862   53.7842 H       1  ZINC000474251633    0.0900
     41 H41        -6.9355    1.9448   52.4096 H       1  ZINC000474251633    0.0800
     42 H42        -7.9737    4.4201   52.1569 H       1  ZINC000474251633    0.0800
     43 H43        -8.9256    3.0167   51.5696 H       1  ZINC000474251633    0.0700
     44 H44        -9.1831    4.5109   54.2373 H       1  ZINC000474251633    0.0700
     45 H45       -10.4805    4.0666   53.0845 H       1  ZINC000474251633    0.0700
     46 H46       -10.5439    1.8523   53.8178 H       1  ZINC000474251633    0.0700
     47 H47        -9.8463    2.5432   55.3100 H       1  ZINC000474251633    0.0800
     48 H48        -6.8617    0.0805   52.1203 H       1  ZINC000474251633    0.1700
     49 H49        -8.0894   -2.0658   51.2378 H       1  ZINC000474251633    0.1500
@<TRIPOS>BOND
     1     1     2    2
     2     2     3    1
     3     2    17   am
     4     3     4    1
     5     3    29    1
     6     3    30    1
     7     4     5   am
     8     4    31    1
     9     5     6    2
    10     5     7    1
    11     7    16    1
    12     7     8    2
    13     8     9    1
    14     8    10    1
    15    10    15   ar
    16    10    11   ar
    17    11    12   ar
    18    11    32    1
    19    12    13   ar
    20    12    33    1
    21    13    14   ar
    22    13    34    1
    23    14    15   ar
    24    14    35    1
    25    15    16    1
    26    17    18    1
    27    17    36    1
    28    18    19    1
    29    18    37    1
    30    18    38    1
    31    19    28    1
    32    19    20    2
    33    20    21    1
    34    21    22    1
    35    21    27    1
    36    22    26    1
    37    22    23    1
    38    22    39    1
    39    23    24    1
    40    23    40    1
    41    23    41    1
    42    24    25    1
    43    24    42    1
    44    24    43    1
    45    25    26    1
    46    25    44    1
    47    25    45    1
    48    26    46    1
    49    26    47    1
    50    27    28    2
    51    27    48    1
    52    28    49    1
@<TRIPOS>SUBSTRUCTURE
     1 ZINC000474251633        1 TEMP              0 ****  ****    0 ROOT


##########                                Name:    ZINC000770850676
##########                DOCK_Rotatable_Bonds:                  13
##########                         Heavy_Atoms:                  30
##########                    Molecular_Weight:             412.486
##########                DOCK_Rotatable_Bonds:                  13
##########                       Formal_Charge:          -0.0299994
##########                     HBond_Acceptors:                   7
##########                        HBond_Donors:                   3
##########                         Heavy_Atoms:                  30
##########                          Grid_Score:          -39.231133
##########                     Grid_vdw_energy:          -37.976257
##########                      Grid_es_energy:           -1.254874
##########           Internal_energy_repulsive:           12.918960

@<TRIPOS>MOLECULE
ZINC000770850676
 58 60 1 0 0
SMALL
USER_CHARGES


@<TRIPOS>ATOM
      1 O1        -13.1878   -5.3863   55.5014 O.2     1  ZINC000770850676   -0.5300
      2 C2        -13.2231   -4.3306   56.0974 C.2     1  ZINC000770850676    0.5100
      3 N3        -13.1069   -3.1707   55.4209 N.am    1  ZINC000770850676   -0.7000
      4 C4        -12.9317   -3.1852   53.9665 C.3     1  ZINC000770850676    0.1600
      5 H5        -13.4890   -4.0202   53.5418 H       1  ZINC000770850676    0.1000
      6 C6        -11.4467   -3.3412   53.6332 C.3     1  ZINC000770850676    0.0600
      7 O7        -11.2993   -4.2151   52.5122 O.3     1  ZINC000770850676   -0.5700
      8 C8        -13.4516   -1.8726   53.3769 C.3     1  ZINC000770850676   -0.1500
      9 C9        -13.8588   -2.0943   51.9189 C.3     1  ZINC000770850676    0.1500
     10 H10       -13.0804   -2.6594   51.4063 H       1  ZINC000770850676    0.1100
     11 O11       -15.0863   -2.8243   51.8728 O.3     1  ZINC000770850676   -0.5400
     12 C12       -14.0414   -0.7613   51.2401 C.ar    1  ZINC000770850676   -0.1200
     13 C13       -14.6707    0.2734   51.9068 C.ar    1  ZINC000770850676   -0.1100
     14 C14       -14.8383    1.4961   51.2842 C.ar    1  ZINC000770850676   -0.1200
     15 C15       -14.3760    1.6845   49.9951 C.ar    1  ZINC000770850676   -0.1200
     16 C16       -13.7458    0.6502   49.3288 C.ar    1  ZINC000770850676   -0.1200
     17 C17       -13.5745   -0.5713   49.9529 C.ar    1  ZINC000770850676   -0.1100
     18 C18       -13.4033   -4.3155   57.5935 C.3     1  ZINC000770850676    0.1400
     19 H19       -12.9727   -5.2179   58.0277 H       1  ZINC000770850676    0.1000
     20 C20       -14.9046   -4.2310   57.9404 C.3     1  ZINC000770850676   -0.1200
     21 C21       -14.9244   -3.2852   59.1703 C.3     1  ZINC000770850676   -0.1300
     22 C22       -13.7835   -2.2973   58.8212 C.3     1  ZINC000770850676    0.1000
     23 N23       -12.7527   -3.1267   58.1635 N.am    1  ZINC000770850676   -0.5900
     24 C24       -11.4377   -2.8389   58.0969 C.2     1  ZINC000770850676    0.6700
     25 O25       -10.6780   -3.5968   57.5268 O.2     1  ZINC000770850676   -0.5600
     26 O26       -10.9659   -1.7116   58.6620 O.3     1  ZINC000770850676   -0.3600
     27 C27        -9.5784   -1.7197   59.0900 C.3     1  ZINC000770850676    0.1300
     28 C28        -9.4577   -1.0139   60.4160 C.ar    1  ZINC000770850676   -0.1000
     29 C29        -9.8746    0.2981   60.5411 C.ar    1  ZINC000770850676   -0.0900
     30 C30        -9.7639    0.9455   61.7575 C.ar    1  ZINC000770850676   -0.1200
     31 C31        -9.2366    0.2807   62.8489 C.ar    1  ZINC000770850676   -0.1100
     32 C32        -8.8205   -1.0316   62.7239 C.ar    1  ZINC000770850676   -0.1200
     33 C33        -8.9353   -1.6804   61.5087 C.ar    1  ZINC000770850676   -0.0900
     34 H34       -13.1391   -2.3262   55.8970 H       1  ZINC000770850676    0.4000
     35 H35       -11.0241   -2.3659   53.3917 H       1  ZINC000770850676    0.0500
     36 H36       -10.9236   -3.7611   54.4924 H       1  ZINC000770850676    0.0500
     37 H37       -11.7345   -3.9003   51.7081 H       1  ZINC000770850676    0.3800
     38 H38       -14.3164   -1.5350   53.9483 H       1  ZINC000770850676    0.0800
     39 H39       -12.6674   -1.1172   53.4245 H       1  ZINC000770850676    0.0900
     40 H40       -15.0380   -3.7011   52.2778 H       1  ZINC000770850676    0.3700
     41 H41       -15.0319    0.1262   52.9140 H       1  ZINC000770850676    0.1200
     42 H42       -15.3305    2.3043   51.8048 H       1  ZINC000770850676    0.1200
     43 H43       -14.5075    2.6396   49.5084 H       1  ZINC000770850676    0.1200
     44 H44       -13.3850    0.7972   48.3216 H       1  ZINC000770850676    0.1200
     45 H45       -13.0822   -1.3794   49.4323 H       1  ZINC000770850676    0.1200
     46 H46       -15.4680   -3.7996   57.1130 H       1  ZINC000770850676    0.0800
     47 H47       -15.2956   -5.2139   58.2035 H       1  ZINC000770850676    0.1000
     48 H48       -15.8799   -2.7665   59.2490 H       1  ZINC000770850676    0.0900
     49 H49       -14.7015   -3.8315   60.0868 H       1  ZINC000770850676    0.0800
     50 H50       -14.1440   -1.5269   58.1395 H       1  ZINC000770850676    0.0700
     51 H51       -13.3825   -1.8450   59.7283 H       1  ZINC000770850676    0.0900
     52 H52        -9.2362   -2.7495   59.1939 H       1  ZINC000770850676    0.0800
     53 H53        -8.9663   -1.2066   58.3482 H       1  ZINC000770850676    0.0800
     54 H54       -10.2865    0.8174   59.6885 H       1  ZINC000770850676    0.1200
     55 H55       -10.0890    1.9708   61.8551 H       1  ZINC000770850676    0.1300
     56 H56        -9.1495    0.7868   63.7990 H       1  ZINC000770850676    0.1300
     57 H57        -8.4083   -1.5508   63.5765 H       1  ZINC000770850676    0.1300
     58 H58        -8.6102   -2.7056   61.4111 H       1  ZINC000770850676    0.1200
@<TRIPOS>BOND
     1     1     2    2
     2     2     3   am
     3     2    18    1
     4     3     4    1
     5     3    34    1
     6     4     5    1
     7     4     6    1
     8     4     8    1
     9     6     7    1
    10     6    35    1
    11     6    36    1
    12     7    37    1
    13     8     9    1
    14     8    38    1
    15     8    39    1
    16     9    10    1
    17     9    11    1
    18     9    12    1
    19    11    40    1
    20    12    17   ar
    21    12    13   ar
    22    13    14   ar
    23    13    41    1
    24    14    15   ar
    25    14    42    1
    26    15    16   ar
    27    15    43    1
    28    16    17   ar
    29    16    44    1
    30    17    45    1
    31    18    19    1
    32    18    23    1
    33    18    20    1
    34    20    21    1
    35    20    46    1
    36    20    47    1
    37    21    22    1
    38    21    48    1
    39    21    49    1
    40    22    23    1
    41    22    50    1
    42    22    51    1
    43    23    24   am
    44    24    25    2
    45    24    26    1
    46    26    27    1
    47    27    28    1
    48    27    52    1
    49    27    53    1
    50    28    33   ar
    51    28    29   ar
    52    29    30   ar
    53    29    54    1
    54    30    31   ar
    55    30    55    1
    56    31    32   ar
    57    31    56    1
    58    32    33   ar
    59    32    57    1
    60    33    58    1
@<TRIPOS>SUBSTRUCTURE
     1 ZINC000770850676        1 TEMP              0 ****  ****    0 ROOT


##########                                Name:    ZINC000479580180
##########                DOCK_Rotatable_Bonds:                   5
##########                         Heavy_Atoms:                  30
##########                    Molecular_Weight:             404.444
##########                DOCK_Rotatable_Bonds:                   5
##########                       Formal_Charge:           0.0299995
##########                     HBond_Acceptors:                   7
##########                        HBond_Donors:                   1
##########                         Heavy_Atoms:                  30
##########                          Grid_Score:          -39.137878
##########                     Grid_vdw_energy:          -39.578926
##########                      Grid_es_energy:            0.441049
##########           Internal_energy_repulsive:           15.405283

@<TRIPOS>MOLECULE
ZINC000479580180
 51 55 1 0 0
SMALL
USER_CHARGES


@<TRIPOS>ATOM
      1 O1        -15.1779   -4.2759   54.8020 O.2     1  ZINC000479580180   -0.5200
      2 C2        -14.5191   -3.4525   55.4011 C.2     1  ZINC000479580180    0.5200
      3 C3        -14.4020   -3.5282   56.9017 C.3     1  ZINC000479580180   -0.0700
      4 C4        -13.0604   -4.1061   57.2723 C.2     1  ZINC000479580180   -0.1600
      5 C5        -12.5404   -5.2668   56.8512 C.2     1  ZINC000479580180    0.0300
      6 O6        -11.3231   -5.4525   57.3918 O.3     1  ZINC000479580180   -0.1900
      7 C7        -10.9901   -4.4204   58.1925 C.ar    1  ZINC000479580180    0.0800
      8 C8         -9.8726   -4.1323   58.9653 C.ar    1  ZINC000479580180   -0.1400
      9 C9         -9.8268   -2.9613   59.6958 C.ar    1  ZINC000479580180    0.1300
     10 F10        -8.7384   -2.6831   60.4464 F       1  ZINC000479580180   -0.1300
     11 C11       -10.8888   -2.0666   59.6661 C.ar    1  ZINC000479580180   -0.1600
     12 C12       -11.9975   -2.3336   58.9114 C.ar    1  ZINC000479580180   -0.0400
     13 C13       -12.0580   -3.5074   58.1624 C.ar    1  ZINC000479580180   -0.1200
     14 N14       -13.8871   -2.4731   54.7245 N.am    1  ZINC000479580180   -0.6200
     15 C15       -13.0756   -1.4756   55.4352 C.3     1  ZINC000479580180    0.1100
     16 C16       -11.6764   -1.4440   54.8124 C.3     1  ZINC000479580180   -0.1300
     17 C17       -11.7979   -1.1982   53.3067 C.3     1  ZINC000479580180   -0.0100
     18 C18       -10.4217   -1.1325   52.6961 C.2     1  ZINC000479580180    0.3000
     19 N19        -9.6796   -0.0617   52.5949 N.2     1  ZINC000479580180   -0.5300
     20 C20        -8.5191   -0.3689   52.0000 C.2     1  ZINC000479580180    0.2700
     21 C21        -7.4174    0.5822   51.7096 C.ar    1  ZINC000479580180   -0.0200
     22 C22        -6.3553    0.1942   50.8956 C.ar    1  ZINC000479580180   -0.0800
     23 C23        -5.3336    1.0828   50.6285 C.ar    1  ZINC000479580180   -0.1300
     24 C24        -5.3625    2.3563   51.1676 C.ar    1  ZINC000479580180   -0.1000
     25 C25        -6.4145    2.7465   51.9765 C.ar    1  ZINC000479580180   -0.1200
     26 C26        -7.4444    1.8680   52.2454 C.ar    1  ZINC000479580180   -0.0800
     27 N27        -8.5178   -1.6530   51.7164 N.2     1  ZINC000479580180   -0.3000
     28 N28        -9.7445   -2.1673   52.1669 N.pl3   1  ZINC000479580180   -0.4800
     29 C29       -12.5872   -2.3409   52.6637 C.3     1  ZINC000479580180   -0.1400
     30 C30       -13.9918   -2.3861   53.2616 C.3     1  ZINC000479580180    0.1200
     31 H31       -14.4959   -2.5279   57.3245 H       1  ZINC000479580180    0.1100
     32 H32       -15.1935   -4.1652   57.2963 H       1  ZINC000479580180    0.1100
     33 H33       -13.0282   -5.9538   56.1756 H       1  ZINC000479580180    0.2100
     34 H34        -9.0421   -4.8221   58.9949 H       1  ZINC000479580180    0.1500
     35 H35       -10.8388   -1.1547   60.2426 H       1  ZINC000479580180    0.1400
     36 H36       -12.8211   -1.6352   58.8919 H       1  ZINC000479580180    0.1300
     37 H37       -13.5394   -0.4936   55.3419 H       1  ZINC000479580180    0.0800
     38 H38       -13.0010   -1.7481   56.4879 H       1  ZINC000479580180    0.0900
     39 H39       -11.0942   -0.6419   55.2662 H       1  ZINC000479580180    0.0900
     40 H40       -11.1791   -2.3983   54.9863 H       1  ZINC000479580180    0.0700
     41 H41       -12.3174   -0.2557   53.1335 H       1  ZINC000479580180    0.1200
     42 H42        -6.3314   -0.8001   50.4747 H       1  ZINC000479580180    0.1400
     43 H43        -4.5098    0.7832   49.9976 H       1  ZINC000479580180    0.1300
     44 H44        -4.5606    3.0483   50.9566 H       1  ZINC000479580180    0.1300
     45 H45        -6.4320    3.7419   52.3952 H       1  ZINC000479580180    0.1300
     46 H46        -8.2655    2.1738   52.8769 H       1  ZINC000479580180    0.1300
     47 H47       -10.0465   -3.0869   52.1035 H       1  ZINC000479580180    0.4400
     48 H48       -12.6532   -2.1771   51.5882 H       1  ZINC000479580180    0.0900
     49 H49       -12.0813   -3.2867   52.8578 H       1  ZINC000479580180    0.0700
     50 H50       -14.5235   -3.2577   52.8795 H       1  ZINC000479580180    0.1000
     51 H51       -14.5327   -1.4788   52.9930 H       1  ZINC000479580180    0.0800
@<TRIPOS>BOND
     1     1     2    2
     2     2     3    1
     3     2    14   am
     4     3     4    1
     5     3    31    1
     6     3    32    1
     7     4    13    1
     8     4     5    2
     9     5     6    1
    10     5    33    1
    11     6     7    1
    12     7    13   ar
    13     7     8   ar
    14     8     9   ar
    15     8    34    1
    16     9    10    1
    17     9    11   ar
    18    11    12   ar
    19    11    35    1
    20    12    13   ar
    21    12    36    1
    22    14    30    1
    23    14    15    1
    24    15    16    1
    25    15    37    1
    26    15    38    1
    27    16    17    1
    28    16    39    1
    29    16    40    1
    30    17    18    1
    31    17    29    1
    32    17    41    1
    33    18    28    1
    34    18    19    2
    35    19    20    1
    36    20    21    1
    37    20    27    2
    38    21    26   ar
    39    21    22   ar
    40    22    23   ar
    41    22    42    1
    42    23    24   ar
    43    23    43    1
    44    24    25   ar
    45    24    44    1
    46    25    26   ar
    47    25    45    1
    48    26    46    1
    49    27    28    1
    50    28    47    1
    51    29    30    1
    52    29    48    1
    53    29    49    1
    54    30    50    1
    55    30    51    1
@<TRIPOS>SUBSTRUCTURE
     1 ZINC000479580180        1 TEMP              0 ****  ****    0 ROOT


##########                                Name:    ZINC000284209281
##########                DOCK_Rotatable_Bonds:                   8
##########                         Heavy_Atoms:                  26
##########                    Molecular_Weight:             353.424
##########                DOCK_Rotatable_Bonds:                   8
##########                       Formal_Charge:          0.00999954
##########                     HBond_Acceptors:                   7
##########                        HBond_Donors:                   1
##########                         Heavy_Atoms:                  26
##########                          Grid_Score:          -39.087242
##########                     Grid_vdw_energy:          -38.427887
##########                      Grid_es_energy:           -0.659355
##########           Internal_energy_repulsive:           14.627000

@<TRIPOS>MOLECULE
ZINC000284209281
 49 51 1 0 0
SMALL
USER_CHARGES


@<TRIPOS>ATOM
      1 O1        -10.5410   -4.1435   53.4208 O.2     1  <0>        -0.5100
      2 C2        -11.5001   -3.4813   53.7587 C.2     1  <0>         0.5100
      3 N3        -11.6514   -2.2266   53.2904 N.am    1  <0>        -0.7000
      4 C4        -10.6547   -1.6600   52.3784 C.3     1  <0>         0.1200
      5 C5         -9.9562   -0.4793   53.0560 C.3     1  <0>        -0.1000
      6 C6         -8.8375    0.0151   52.1757 C.ar    1  <0>        -0.0400
      7 C7         -8.6634    1.3708   51.9433 C.ar    1  <0>        -0.1700
      8 C8         -7.6263    1.7871   51.1302 C.ar    1  <0>         0.1000
      9 N9         -6.8088    0.9118   50.5785 N.ar    1  <0>        -0.4900
     10 C10        -6.9442   -0.3848   50.7774 C.ar    1  <0>         0.1000
     11 C11        -7.9543   -0.8746   51.5834 C.ar    1  <0>        -0.1700
     12 C12       -12.5169   -4.0593   54.6890 C.2     1  <0>         0.5100
     13 O13       -13.5237   -4.5712   54.2454 O.2     1  <0>        -0.5200
     14 N14       -12.3157   -4.0119   56.0209 N.am    1  <0>        -0.5800
     15 C15       -11.1054   -3.3907   56.5798 C.3     1  <0>         0.0800
     16 C16       -11.5275   -2.3800   57.6516 C.3     1  <0>         0.0400
     17 N17       -12.3942   -3.0456   58.6334 N.3     1  <0>        -0.5300
     18 C18       -12.6813   -2.1587   59.7688 C.3     1  <0>         0.1000
     19 C19       -11.3981   -1.8332   60.4889 C.ar    1  <0>         0.1300
     20 C20       -11.2337   -0.5862   61.0612 C.ar    1  <0>        -0.1500
     21 C21       -10.0493   -0.2969   61.7220 C.ar    1  <0>        -0.0700
     22 C22        -9.0709   -1.2771   61.7822 C.ar    1  <0>        -0.1700
     23 C23        -9.3066   -2.5016   61.1858 C.ar    1  <0>         0.1000
     24 N24       -10.4473   -2.7434   60.5702 N.ar    1  <0>        -0.4800
     25 C25       -13.6363   -3.5227   58.0109 C.3     1  <0>         0.0400
     26 C26       -13.3034   -4.5747   56.9541 C.3     1  <0>         0.1100
     27 H27       -12.4202   -1.6988   53.5573 H       1  <0>         0.4100
     28 H28        -9.9175   -2.4224   52.1267 H       1  <0>         0.0800
     29 H29       -11.1479   -1.3171   51.4688 H       1  <0>         0.0800
     30 H30       -10.6748    0.3246   53.2162 H       1  <0>         0.0900
     31 H31        -9.5495   -0.7996   54.0152 H       1  <0>         0.0900
     32 H32        -9.3302    2.0926   52.3917 H       1  <0>         0.1400
     33 H33        -7.4839    2.8414   50.9442 H       1  <0>         0.1600
     34 H34        -6.2552   -1.0715   50.3082 H       1  <0>         0.1600
     35 H35        -8.0598   -1.9376   51.7428 H       1  <0>         0.1400
     36 H36       -10.4738   -4.1576   57.0283 H       1  <0>         0.0800
     37 H37       -10.5580   -2.8782   55.7887 H       1  <0>         0.1400
     38 H38       -10.6417   -1.9905   58.1533 H       1  <0>         0.0900
     39 H39       -12.0713   -1.5594   57.1837 H       1  <0>         0.0400
     40 H40       -13.1373   -1.2381   59.4046 H       1  <0>         0.0900
     41 H41       -13.3665   -2.6569   60.4547 H       1  <0>         0.0600
     42 H42       -12.0175    0.1537   60.9946 H       1  <0>         0.1400
     43 H43        -9.8927    0.6693   62.1785 H       1  <0>         0.1400
     44 H44        -8.1361   -1.0864   62.2883 H       1  <0>         0.1400
     45 H45        -8.5493   -3.2705   61.2279 H       1  <0>         0.1600
     46 H46       -14.2798   -3.9618   58.7731 H       1  <0>         0.1000
     47 H47       -14.1508   -2.6861   57.5379 H       1  <0>         0.0400
     48 H48       -14.2084   -4.8475   56.4113 H       1  <0>         0.1000
     49 H49       -12.8820   -5.4569   57.4358 H       1  <0>         0.0800
@<TRIPOS>BOND
     1     1     2    2
     2     2     3   am
     3     2    12    1
     4     3     4    1
     5     3    27    1
     6     4     5    1
     7     4    28    1
     8     4    29    1
     9     5     6    1
    10     5    30    1
    11     5    31    1
    12     6    11   ar
    13     6     7   ar
    14     7     8   ar
    15     7    32    1
    16     8     9   ar
    17     8    33    1
    18     9    10   ar
    19    10    11   ar
    20    10    34    1
    21    11    35    1
    22    12    13    2
    23    12    14   am
    24    14    26    1
    25    14    15    1
    26    15    16    1
    27    15    36    1
    28    15    37    1
    29    16    17    1
    30    16    38    1
    31    16    39    1
    32    17    18    1
    33    17    25    1
    34    18    19    1
    35    18    40    1
    36    18    41    1
    37    19    24   ar
    38    19    20   ar
    39    20    21   ar
    40    20    42    1
    41    21    22   ar
    42    21    43    1
    43    22    23   ar
    44    22    44    1
    45    23    24   ar
    46    23    45    1
    47    25    26    1
    48    25    46    1
    49    25    47    1
    50    26    48    1
    51    26    49    1
@<TRIPOS>SUBSTRUCTURE
     1 <0>         1 TEMP              0 ****  ****    0 ROOT


##########                                Name:    ZINC000428266315
##########                DOCK_Rotatable_Bonds:                  10
##########                         Heavy_Atoms:                  30
##########                    Molecular_Weight:             423.438
##########                DOCK_Rotatable_Bonds:                  10
##########                       Formal_Charge:          0.00999977
##########                     HBond_Acceptors:                  10
##########                        HBond_Donors:                   0
##########                         Heavy_Atoms:                  30
##########                          Grid_Score:          -39.032009
##########                     Grid_vdw_energy:          -39.798203
##########                      Grid_es_energy:            0.766192
##########           Internal_energy_repulsive:            9.034497

@<TRIPOS>MOLECULE
ZINC000428266315
 54 56 1 0 0
SMALL
USER_CHARGES


@<TRIPOS>ATOM
      1 C1         -4.1817    1.6655   50.4159 C.3     1  ZINC000428266315   -0.1500
      2 C2         -5.1214    2.3569   51.4058 C.3     1  ZINC000428266315    0.0600
      3 O3         -6.2844    1.5499   51.6016 O.3     1  ZINC000428266315   -0.3700
      4 C4         -7.1929    2.0665   52.5762 C.3     1  ZINC000428266315    0.1800
      5 H5         -6.6392    2.3680   53.4653 H       1  ZINC000428266315    0.0900
      6 C6         -7.9272    3.2777   51.9976 C.3     1  ZINC000428266315   -0.1700
      7 C7         -8.1934    1.0014   52.9446 C.2     1  ZINC000428266315    0.1700
      8 N8         -8.7468    0.8358   54.1085 N.2     1  ZINC000428266315   -0.3500
      9 O9         -9.5076   -0.1085   54.0812 O.3     1  ZINC000428266315    0.0800
     10 C10        -9.5119   -0.6515   52.8601 C.2     1  ZINC000428266315    0.1900
     11 C11       -10.3204   -1.8408   52.4095 C.3     1  ZINC000428266315    0.1500
     12 N12       -11.7315   -1.6359   52.7631 N.3     1  ZINC000428266315   -0.5300
     13 C13       -12.2431   -0.3864   52.1843 C.3     1  ZINC000428266315    0.0200
     14 C14       -12.5501   -2.7826   52.3475 C.3     1  ZINC000428266315    0.1400
     15 C15       -13.3384   -3.2907   53.5271 C.2     1  ZINC000428266315   -0.2300
     16 C16       -12.8287   -3.9021   54.6215 C.2     1  ZINC000428266315    0.0800
     17 N17       -13.8573   -4.2015   55.4420 N.pl3   1  ZINC000428266315   -0.3700
     18 C18       -13.7568   -4.8701   56.7416 C.3     1  ZINC000428266315    0.1700
     19 C19       -12.6022   -4.2899   57.5171 C.ar    1  ZINC000428266315   -0.0800
     20 C20       -12.6992   -3.0201   58.0547 C.ar    1  ZINC000428266315   -0.1000
     21 C21       -11.6401   -2.4879   58.7659 C.ar    1  ZINC000428266315   -0.0700
     22 C22       -10.4842   -3.2257   58.9401 C.ar    1  ZINC000428266315   -0.1700
     23 C23        -9.3294   -2.6453   59.7151 C.3     1  ZINC000428266315    0.5100
     24 F24        -8.1804   -3.4086   59.4816 F       1  ZINC000428266315   -0.1700
     25 F25        -9.1057   -1.3276   59.3018 F       1  ZINC000428266315   -0.1800
     26 F26        -9.6299   -2.6609   61.0813 F       1  ZINC000428266315   -0.1800
     27 C27       -10.3877   -4.4960   58.4036 C.ar    1  ZINC000428266315   -0.0700
     28 C28       -11.4482   -5.0298   57.6957 C.ar    1  ZINC000428266315   -0.0800
     29 N29       -15.0383   -3.7596   54.8317 N.2     1  ZINC000428266315   -0.2900
     30 C30       -14.7255   -3.2086   53.6870 C.2     1  ZINC000428266315    0.0600
     31 N31        -8.6819    0.0513   52.1276 N.2     1  ZINC000428266315   -0.4600
     32 H32        -3.2946    2.2811   50.2665 H       1  ZINC000428266315    0.0700
     33 H33        -3.8873    0.6939   50.8125 H       1  ZINC000428266315    0.0600
     34 H34        -4.6939    1.5291   49.4634 H       1  ZINC000428266315    0.0600
     35 H35        -4.6092    2.4933   52.3583 H       1  ZINC000428266315    0.0500
     36 H36        -5.4159    3.3286   51.0092 H       1  ZINC000428266315    0.0500
     37 H37        -8.4809    2.9762   51.1084 H       1  ZINC000428266315    0.0700
     38 H38        -8.6201    3.6717   52.7409 H       1  ZINC000428266315    0.0700
     39 H39        -7.2035    4.0480   51.7311 H       1  ZINC000428266315    0.0700
     40 H40       -10.2293   -1.9540   51.3293 H       1  ZINC000428266315    0.0800
     41 H41        -9.9494   -2.7398   52.9017 H       1  ZINC000428266315    0.1200
     42 H42       -12.1572   -0.4271   51.0983 H       1  ZINC000428266315    0.0400
     43 H43       -13.2896   -0.2594   52.4613 H       1  ZINC000428266315    0.0800
     44 H44       -11.6622    0.4543   52.5634 H       1  ZINC000428266315    0.0600
     45 H45       -13.2357   -2.4727   51.5587 H       1  ZINC000428266315    0.0500
     46 H46       -11.9020   -3.5757   51.9748 H       1  ZINC000428266315    0.0900
     47 H47       -11.7854   -4.1127   54.8053 H       1  ZINC000428266315    0.1700
     48 H48       -14.6810   -4.7206   57.2997 H       1  ZINC000428266315    0.1000
     49 H49       -13.5927   -5.9369   56.5895 H       1  ZINC000428266315    0.1100
     50 H50       -13.6023   -2.4436   57.9186 H       1  ZINC000428266315    0.1300
     51 H51       -11.7157   -1.4955   59.1854 H       1  ZINC000428266315    0.1400
     52 H52        -9.4847   -5.0726   58.5400 H       1  ZINC000428266315    0.1400
     53 H53       -11.3729   -6.0223   57.2765 H       1  ZINC000428266315    0.1400
     54 H54       -15.4193   -2.7726   52.9835 H       1  ZINC000428266315    0.1800
@<TRIPOS>BOND
     1     1     2    1
     2     1    32    1
     3     1    33    1
     4     1    34    1
     5     2     3    1
     6     2    35    1
     7     2    36    1
     8     3     4    1
     9     4     5    1
    10     4     6    1
    11     4     7    1
    12     6    37    1
    13     6    38    1
    14     6    39    1
    15     7    31    1
    16     7     8    2
    17     8     9    1
    18     9    10    1
    19    10    11    1
    20    10    31    2
    21    11    12    1
    22    11    40    1
    23    11    41    1
    24    12    13    1
    25    12    14    1
    26    13    42    1
    27    13    43    1
    28    13    44    1
    29    14    15    1
    30    14    45    1
    31    14    46    1
    32    15    30    1
    33    15    16    2
    34    16    17    1
    35    16    47    1
    36    17    18    1
    37    17    29    1
    38    18    19    1
    39    18    48    1
    40    18    49    1
    41    19    28   ar
    42    19    20   ar
    43    20    21   ar
    44    20    50    1
    45    21    22   ar
    46    21    51    1
    47    22    23    1
    48    22    27   ar
    49    23    24    1
    50    23    25    1
    51    23    26    1
    52    27    28   ar
    53    27    52    1
    54    28    53    1
    55    29    30    2
    56    30    54    1
@<TRIPOS>SUBSTRUCTURE
     1 ZINC000428266315        1 TEMP              0 ****  ****    0 ROOT


##########                                Name:    ZINC000150894060
##########                DOCK_Rotatable_Bonds:                  10
##########                         Heavy_Atoms:                  27
##########                    Molecular_Weight:              366.42
##########                DOCK_Rotatable_Bonds:                  10
##########                       Formal_Charge:        -6.70552e-07
##########                     HBond_Acceptors:                   7
##########                        HBond_Donors:                   2
##########                         Heavy_Atoms:                  27
##########                          Grid_Score:          -38.965157
##########                     Grid_vdw_energy:          -37.420616
##########                      Grid_es_energy:           -1.544542
##########           Internal_energy_repulsive:           11.571848

@<TRIPOS>MOLECULE
ZINC000150894060
 49 51 1 0 0
SMALL
USER_CHARGES


@<TRIPOS>ATOM
      1 C1        -10.3681    0.8431   54.4901 C.3     1  ZINC000150894060   -0.1000
      2 C2         -9.1310    0.9714   53.6391 C.2     1  ZINC000150894060   -0.0800
      3 C3         -8.7343    0.1239   52.6447 C.2     1  ZINC000150894060   -0.1000
      4 C4         -9.4413   -1.0852   52.2099 C.2     1  ZINC000150894060    0.6100
      5 O5         -8.8145   -2.0932   51.9413 O.2     1  ZINC000150894060   -0.5100
      6 N6        -10.7851   -1.0802   52.1079 N.am    1  ZINC000150894060   -0.7200
      7 C7        -11.4915   -2.2885   51.6752 C.3     1  ZINC000150894060    0.1200
      8 C8        -12.3880   -2.7889   52.8096 C.3     1  ZINC000150894060   -0.1500
      9 C9        -11.7113   -3.9677   53.5122 C.3     1  ZINC000150894060    0.1200
     10 N10       -11.0349   -3.4924   54.7216 N.am    1  ZINC000150894060   -0.7300
     11 C11       -11.5947   -3.6952   55.9307 C.2     1  ZINC000150894060    0.5600
     12 O12       -12.6602   -4.2738   56.0178 O.2     1  ZINC000150894060   -0.5300
     13 C13       -10.9130   -3.2140   57.1511 C.ar    1  ZINC000150894060   -0.1300
     14 C14       -10.4989   -4.1220   58.1269 C.ar    1  ZINC000150894060   -0.0900
     15 C15        -9.8626   -3.6665   59.2631 C.ar    1  ZINC000150894060   -0.0900
     16 C16        -9.6353   -2.3128   59.4368 C.ar    1  ZINC000150894060   -0.0800
     17 C17        -8.9403   -1.8223   60.6807 C.3     1  ZINC000150894060    0.1700
     18 N18        -9.9091   -1.1454   61.5465 N.pl3   1  ZINC000150894060   -0.3700
     19 C19        -9.6155   -0.3235   62.5758 C.2     1  ZINC000150894060    0.0500
     20 C20       -10.7836    0.0930   63.1172 C.2     1  ZINC000150894060   -0.2700
     21 C21       -11.8268   -0.4944   62.3939 C.2     1  ZINC000150894060    0.0400
     22 N22       -11.3038   -1.2321   61.4483 N.2     1  ZINC000150894060   -0.2900
     23 C23       -10.0429   -1.4075   58.4731 C.ar    1  ZINC000150894060   -0.1100
     24 C24       -10.6753   -1.8502   57.3298 C.ar    1  ZINC000150894060   -0.0600
     25 O25        -7.5781    0.5937   52.1324 O.3     1  ZINC000150894060   -0.1700
     26 C26        -7.2308    1.7163   52.7749 C.2     1  ZINC000150894060    0.0000
     27 C27        -8.1664    1.9886   53.7111 C.2     1  ZINC000150894060   -0.2300
     28 H28       -11.1960    1.3635   54.0085 H       1  ZINC000150894060    0.0800
     29 H29       -10.6206   -0.2107   54.6077 H       1  ZINC000150894060    0.0900
     30 H30       -10.1826    1.2838   55.4697 H       1  ZINC000150894060    0.0700
     31 H31       -11.2847   -0.2764   52.3209 H       1  ZINC000150894060    0.4100
     32 H32       -12.1033   -2.0590   50.8029 H       1  ZINC000150894060    0.0800
     33 H33       -10.7665   -3.0606   51.4176 H       1  ZINC000150894060    0.0800
     34 H34       -12.5509   -1.9839   53.5261 H       1  ZINC000150894060    0.0800
     35 H35       -13.3457   -3.1108   52.4007 H       1  ZINC000150894060    0.0800
     36 H36       -12.4629   -4.7090   53.7836 H       1  ZINC000150894060    0.0800
     37 H37       -10.9808   -4.4198   52.8413 H       1  ZINC000150894060    0.0800
     38 H38       -10.1841   -3.0317   54.6523 H       1  ZINC000150894060    0.4000
     39 H39       -10.6763   -5.1788   57.9929 H       1  ZINC000150894060    0.1300
     40 H40        -9.5418   -4.3681   60.0189 H       1  ZINC000150894060    0.1300
     41 H41        -8.5071   -2.6693   61.2129 H       1  ZINC000150894060    0.1100
     42 H42        -8.1502   -1.1243   60.4042 H       1  ZINC000150894060    0.1000
     43 H43        -8.6255   -0.0479   62.9082 H       1  ZINC000150894060    0.1700
     44 H44       -10.8914    0.7606   63.9592 H       1  ZINC000150894060    0.1500
     45 H45       -12.8818   -0.3584   62.5805 H       1  ZINC000150894060    0.1800
     46 H46        -9.8621   -0.3521   58.6145 H       1  ZINC000150894060    0.1300
     47 H47       -10.9927   -1.1425   56.5782 H       1  ZINC000150894060    0.1400
     48 H48        -6.3501    2.3086   52.5749 H       1  ZINC000150894060    0.2100
     49 H49        -8.1682    2.8275   54.3912 H       1  ZINC000150894060    0.1600
@<TRIPOS>BOND
     1     1     2    1
     2     1    28    1
     3     1    29    1
     4     1    30    1
     5     2    27    1
     6     2     3    2
     7     3     4    1
     8     3    25    1
     9     4     5    2
    10     4     6   am
    11     6     7    1
    12     6    31    1
    13     7     8    1
    14     7    32    1
    15     7    33    1
    16     8     9    1
    17     8    34    1
    18     8    35    1
    19     9    10    1
    20     9    36    1
    21     9    37    1
    22    10    11   am
    23    10    38    1
    24    11    12    2
    25    11    13    1
    26    13    24   ar
    27    13    14   ar
    28    14    15   ar
    29    14    39    1
    30    15    16   ar
    31    15    40    1
    32    16    17    1
    33    16    23   ar
    34    17    18    1
    35    17    41    1
    36    17    42    1
    37    18    22    1
    38    18    19    1
    39    19    20    2
    40    19    43    1
    41    20    21    1
    42    20    44    1
    43    21    22    2
    44    21    45    1
    45    23    24   ar
    46    23    46    1
    47    24    47    1
    48    25    26    1
    49    26    27    2
    50    26    48    1
    51    27    49    1
@<TRIPOS>SUBSTRUCTURE
     1 ZINC000150894060        1 TEMP              0 ****  ****    0 ROOT


##########                                Name:    ZINC000824084043
##########                DOCK_Rotatable_Bonds:                  11
##########                         Heavy_Atoms:                  27
##########                    Molecular_Weight:             382.547
##########                DOCK_Rotatable_Bonds:                  11
##########                       Formal_Charge:        -6.85453e-07
##########                     HBond_Acceptors:                   7
##########                        HBond_Donors:                   3
##########                         Heavy_Atoms:                  27
##########                          Grid_Score:          -38.813862
##########                     Grid_vdw_energy:          -35.345226
##########                      Grid_es_energy:           -3.468635
##########           Internal_energy_repulsive:           21.960546

@<TRIPOS>MOLECULE
ZINC000824084043
 65 66 1 0 0
SMALL
USER_CHARGES


@<TRIPOS>ATOM
      1 C1        -13.0993   -1.1344   54.9325 C.3     1  ZINC000824084043   -0.1400
      2 C2        -14.0206   -2.3559   54.9315 C.3     1  ZINC000824084043   -0.1000
      3 C3        -14.9060   -2.3259   53.6841 C.3     1  ZINC000824084043   -0.1300
      4 C4        -13.1760   -3.6317   54.9269 C.3     1  ZINC000824084043    0.1700
      5 H5        -12.3062   -3.4939   55.5691 H       1  ZINC000824084043    0.0700
      6 C6        -14.0146   -4.8005   55.4479 C.3     1  ZINC000824084043   -0.1400
      7 C7        -13.4562   -5.2692   56.7930 C.3     1  ZINC000824084043    0.1300
      8 N8        -13.6623   -4.2236   57.7984 N.am    1  ZINC000824084043   -0.6200
      9 C9        -15.0059   -3.9661   58.3225 C.3     1  ZINC000824084043    0.0800
     10 C10       -12.6160   -3.4987   58.2410 C.2     1  ZINC000824084043    0.7000
     11 O11       -11.5006   -3.7133   57.8071 O.2     1  ZINC000824084043   -0.5800
     12 N12       -12.8059   -2.5357   59.1646 N.am    1  ZINC000824084043   -0.7500
     13 C13       -11.6688   -1.7464   59.6445 C.3     1  ZINC000824084043    0.1600
     14 C14       -12.1675   -0.3974   60.1707 C.3     1  ZINC000824084043   -0.1600
     15 C15       -10.9860    0.3890   60.7427 C.3     1  ZINC000824084043   -0.0100
     16 N16       -10.3737   -0.3698   61.8399 N.4     1  ZINC000824084043   -0.3800
     17 H17       -11.0710   -0.5649   62.5426 H       1  ZINC000824084043    0.4200
     18 C18        -9.2890    0.4220   62.4352 C.3     1  ZINC000824084043    0.0000
     19 C19        -9.6387    0.7558   63.8869 C.3     1  ZINC000824084043   -0.1200
     20 C20        -8.3869    0.6255   64.7896 C.3     1  ZINC000824084043   -0.1400
     21 C21        -8.7352    1.5393   65.9908 C.3     1  ZINC000824084043   -0.1200
     22 C22        -9.4719    2.7361   65.3546 C.3     1  ZINC000824084043   -0.1300
     23 C23       -10.0464    2.2379   64.0169 C.3     1  ZINC000824084043   -0.1100
     24 C24        -9.8294   -1.6334   61.3285 C.3     1  ZINC000824084043    0.0000
     25 C25       -10.9663   -2.4977   60.7791 C.3     1  ZINC000824084043   -0.1600
     26 N26       -12.7332   -3.9193   53.5603 N.am    1  ZINC000824084043   -0.7800
     27 C27       -11.4838   -3.5933   53.1741 C.2     1  ZINC000824084043    0.6600
     28 O28       -10.7201   -3.0561   53.9640 O.co2   1  ZINC000824084043   -0.7200
     29 O29       -11.1138   -3.8348   52.0335 O.co2   1  ZINC000824084043   -0.7300
     30 H30       -13.7011   -0.2256   54.9358 H       1  ZINC000824084043    0.0500
     31 H31       -12.4685   -1.1558   55.8212 H       1  ZINC000824084043    0.0500
     32 H32       -12.4721   -1.1517   54.0412 H       1  ZINC000824084043    0.0500
     33 H33       -14.6479   -2.3387   55.8228 H       1  ZINC000824084043    0.0500
     34 H34       -14.2788   -2.3433   52.7929 H       1  ZINC000824084043    0.0600
     35 H35       -15.5624   -3.1962   53.6835 H       1  ZINC000824084043    0.0700
     36 H36       -15.5077   -1.4172   53.6874 H       1  ZINC000824084043    0.0300
     37 H37       -15.0478   -4.4777   55.5760 H       1  ZINC000824084043    0.0700
     38 H38       -13.9768   -5.6221   54.7327 H       1  ZINC000824084043    0.0600
     39 H39       -13.9712   -6.1782   57.1034 H       1  ZINC000824084043    0.0900
     40 H40       -12.3898   -5.4717   56.6929 H       1  ZINC000824084043    0.0900
     41 H41       -15.1793   -4.5894   59.1998 H       1  ZINC000824084043    0.0600
     42 H42       -15.0925   -2.9157   58.6002 H       1  ZINC000824084043    0.0600
     43 H43       -15.7457   -4.2019   57.5574 H       1  ZINC000824084043    0.0800
     44 H44       -13.6956   -2.3652   59.5117 H       1  ZINC000824084043    0.4000
     45 H45       -10.9674   -1.5831   58.8263 H       1  ZINC000824084043    0.1100
     46 H46       -12.6196    0.1668   59.3550 H       1  ZINC000824084043    0.1200
     47 H47       -12.9076   -0.5633   60.9535 H       1  ZINC000824084043    0.0900
     48 H48       -10.2467    0.5544   59.9590 H       1  ZINC000824084043    0.1300
     49 H49       -11.3376    1.3501   61.1181 H       1  ZINC000824084043    0.1300
     50 H50        -8.3627   -0.1518   62.4073 H       1  ZINC000824084043    0.1300
     51 H51        -9.1613    1.3457   61.8707 H       1  ZINC000824084043    0.1300
     52 H52       -10.4385    0.1073   64.2445 H       1  ZINC000824084043    0.1000
     53 H53        -8.2511   -0.4057   65.1154 H       1  ZINC000824084043    0.0700
     54 H54        -7.4984    0.9888   64.2729 H       1  ZINC000824084043    0.0800
     55 H55        -9.3881    1.0174   66.6904 H       1  ZINC000824084043    0.0700
     56 H56        -7.8267    1.8733   66.4921 H       1  ZINC000824084043    0.0800
     57 H57       -10.2794    3.0673   66.0076 H       1  ZINC000824084043    0.0700
     58 H58        -8.7734    3.5542   65.1795 H       1  ZINC000824084043    0.0700
     59 H59        -9.6266    2.8143   63.1925 H       1  ZINC000824084043    0.0700
     60 H60       -11.1326    2.3273   64.0206 H       1  ZINC000824084043    0.0800
     61 H61        -9.1147   -1.4249   60.5324 H       1  ZINC000824084043    0.1300
     62 H62        -9.3270   -2.1654   62.1364 H       1  ZINC000824084043    0.1300
     63 H63       -11.6815   -2.7070   61.5745 H       1  ZINC000824084043    0.0900
     64 H64       -10.5598   -3.4346   60.3983 H       1  ZINC000824084043    0.1200
     65 H65       -13.3394   -4.3442   52.9335 H       1  ZINC000824084043    0.3600
@<TRIPOS>BOND
     1     1     2    1
     2     1    30    1
     3     1    31    1
     4     1    32    1
     5     2     3    1
     6     2     4    1
     7     2    33    1
     8     3    34    1
     9     3    35    1
    10     3    36    1
    11     4     5    1
    12     4     6    1
    13     4    26    1
    14     6     7    1
    15     6    37    1
    16     6    38    1
    17     7     8    1
    18     7    39    1
    19     7    40    1
    20     8     9    1
    21     8    10   am
    22     9    41    1
    23     9    42    1
    24     9    43    1
    25    10    11    2
    26    10    12   am
    27    12    13    1
    28    12    44    1
    29    13    25    1
    30    13    14    1
    31    13    45    1
    32    14    15    1
    33    14    46    1
    34    14    47    1
    35    15    16    1
    36    15    48    1
    37    15    49    1
    38    16    17    1
    39    16    18    1
    40    16    24    1
    41    18    19    1
    42    18    50    1
    43    18    51    1
    44    19    23    1
    45    19    20    1
    46    19    52    1
    47    20    21    1
    48    20    53    1
    49    20    54    1
    50    21    22    1
    51    21    55    1
    52    21    56    1
    53    22    23    1
    54    22    57    1
    55    22    58    1
    56    23    59    1
    57    23    60    1
    58    24    25    1
    59    24    61    1
    60    24    62    1
    61    25    63    1
    62    25    64    1
    63    26    27   am
    64    26    65    1
    65    27    28   ar
    66    27    29   ar
@<TRIPOS>SUBSTRUCTURE
     1 ZINC000824084043        1 TEMP              0 ****  ****    0 ROOT


##########                                Name:    ZINC000013809319
##########                DOCK_Rotatable_Bonds:                  10
##########                         Heavy_Atoms:                  30
##########                    Molecular_Weight:             407.469
##########                DOCK_Rotatable_Bonds:                  10
##########                       Formal_Charge:         -0.00999978
##########                     HBond_Acceptors:                   7
##########                        HBond_Donors:                   1
##########                         Heavy_Atoms:                  30
##########                          Grid_Score:          -38.800365
##########                     Grid_vdw_energy:          -37.585430
##########                      Grid_es_energy:           -1.214936
##########           Internal_energy_repulsive:           20.217117

@<TRIPOS>MOLECULE
ZINC000013809319
 55 57 1 0 0
SMALL
USER_CHARGES


@<TRIPOS>ATOM
      1 C1        -14.0597   -0.7918   49.3033 C.3     1  ZINC000013809319   -0.1500
      2 C2        -13.7651   -0.8555   50.8034 C.3     1  ZINC000013809319    0.0500
      3 O3        -13.1597   -2.1113   51.1170 O.3     1  ZINC000013809319   -0.3100
      4 C4        -12.6005   -2.2358   52.3481 C.ar    1  ZINC000013809319    0.1500
      5 C5        -11.6124   -3.1875   52.5674 C.ar    1  ZINC000013809319   -0.2200
      6 C6        -11.0424   -3.3162   53.8152 C.ar    1  ZINC000013809319   -0.0300
      7 C7        -11.4588   -2.4892   54.8596 C.ar    1  ZINC000013809319   -0.1100
      8 C8        -10.8485   -2.6242   56.2012 C.2     1  ZINC000013809319    0.2300
      9 C9        -10.8723   -3.8432   56.8592 C.2     1  ZINC000013809319   -0.2900
     10 C10       -10.2806   -3.9273   58.1316 C.2     1  ZINC000013809319    0.5300
     11 O11       -10.2776   -4.9806   58.7478 O.2     1  ZINC000013809319   -0.5400
     12 N12        -9.7157   -2.8206   58.6582 N.am    1  ZINC000013809319   -0.5100
     13 C13        -9.0917   -2.8804   59.9823 C.3     1  ZINC000013809319    0.0700
     14 C14        -9.7065   -1.8334   60.8749 C.2     1  ZINC000013809319    0.5000
     15 O15       -10.8750   -1.5358   60.7451 O.2     1  ZINC000013809319   -0.5200
     16 N16        -8.9576   -1.2276   61.8177 N.am    1  ZINC000013809319   -0.7200
     17 C17        -9.5557   -0.2109   62.6867 C.3     1  ZINC000013809319    0.1300
     18 C18        -8.7840   -0.1503   64.0065 C.3     1  ZINC000013809319   -0.0800
     19 C19        -9.3180    0.9793   64.8490 C.ar    1  ZINC000013809319   -0.1200
     20 C20       -10.6550    1.3196   64.7819 C.ar    1  ZINC000013809319   -0.0800
     21 C21       -11.1453    2.3565   65.5545 C.ar    1  ZINC000013809319   -0.1500
     22 C22       -10.2994    3.0546   66.3960 C.ar    1  ZINC000013809319   -0.0800
     23 C23        -8.9613    2.7179   66.4671 C.ar    1  ZINC000013809319   -0.2100
     24 C24        -8.4680    1.6748   65.6971 C.ar    1  ZINC000013809319    0.1300
     25 O25        -7.1523    1.3416   65.7652 O.3     1  ZINC000013809319   -0.3100
     26 C26        -6.3362    2.1010   66.6595 C.3     1  ZINC000013809319    0.0300
     27 C27        -9.7224   -1.6604   57.9715 C.2     1  ZINC000013809319    0.3900
     28 N28       -10.2622   -1.5662   56.7880 N.2     1  ZINC000013809319   -0.5300
     29 C29       -12.4518   -1.5341   54.6357 C.ar    1  ZINC000013809319   -0.0500
     30 C30       -13.0137   -1.4073   53.3839 C.ar    1  ZINC000013809319   -0.1600
     31 H31       -13.1290   -0.8957   48.7456 H       1  ZINC000013809319    0.0700
     32 H32       -14.7384   -1.6002   49.0318 H       1  ZINC000013809319    0.0700
     33 H33       -14.5216    0.1662   49.0642 H       1  ZINC000013809319    0.0800
     34 H34       -13.0864   -0.0470   51.0750 H       1  ZINC000013809319    0.0600
     35 H35       -14.6958   -0.7514   51.3612 H       1  ZINC000013809319    0.0600
     36 H36       -11.2909   -3.8274   51.7588 H       1  ZINC000013809319    0.1300
     37 H37       -10.2745   -4.0565   53.9851 H       1  ZINC000013809319    0.1400
     38 H38       -11.3344   -4.7077   56.4058 H       1  ZINC000013809319    0.1600
     39 H39        -9.2529   -3.8674   60.4157 H       1  ZINC000013809319    0.1300
     40 H40        -8.0217   -2.6950   59.8884 H       1  ZINC000013809319    0.1300
     41 H41        -8.0227   -1.4646   61.9208 H       1  ZINC000013809319    0.4000
     42 H42        -9.5101    0.7604   62.1942 H       1  ZINC000013809319    0.0700
     43 H43       -10.5958   -0.4693   62.8855 H       1  ZINC000013809319    0.0700
     44 H44        -8.9054   -1.0918   64.5420 H       1  ZINC000013809319    0.0800
     45 H45        -7.7266    0.0175   63.8018 H       1  ZINC000013809319    0.0800
     46 H46       -11.3178    0.7757   64.1253 H       1  ZINC000013809319    0.1300
     47 H47       -12.1910    2.6215   65.5000 H       1  ZINC000013809319    0.1300
     48 H48       -10.6847    3.8642   66.9980 H       1  ZINC000013809319    0.1300
     49 H49        -8.3008    3.2638   67.1244 H       1  ZINC000013809319    0.1300
     50 H50        -6.7174    1.9979   67.6754 H       1  ZINC000013809319    0.0600
     51 H51        -5.3111    1.7330   66.6169 H       1  ZINC000013809319    0.1000
     52 H52        -6.3577    3.1510   66.3680 H       1  ZINC000013809319    0.0600
     53 H53        -9.2649   -0.7866   58.4115 H       1  ZINC000013809319    0.2000
     54 H54       -12.7763   -0.8925   55.4415 H       1  ZINC000013809319    0.1400
     55 H55       -13.7818   -0.6683   53.2099 H       1  ZINC000013809319    0.1400
@<TRIPOS>BOND
     1     1     2    1
     2     1    31    1
     3     1    32    1
     4     1    33    1
     5     2     3    1
     6     2    34    1
     7     2    35    1
     8     3     4    1
     9     4    30   ar
    10     4     5   ar
    11     5     6   ar
    12     5    36    1
    13     6     7   ar
    14     6    37    1
    15     7     8    1
    16     7    29   ar
    17     8    28    1
    18     8     9    2
    19     9    10    1
    20     9    38    1
    21    10    11    2
    22    10    12   am
    23    12    13    1
    24    12    27    1
    25    13    14    1
    26    13    39    1
    27    13    40    1
    28    14    15    2
    29    14    16   am
    30    16    17    1
    31    16    41    1
    32    17    18    1
    33    17    42    1
    34    17    43    1
    35    18    19    1
    36    18    44    1
    37    18    45    1
    38    19    24   ar
    39    19    20   ar
    40    20    21   ar
    41    20    46    1
    42    21    22   ar
    43    21    47    1
    44    22    23   ar
    45    22    48    1
    46    23    24   ar
    47    23    49    1
    48    24    25    1
    49    25    26    1
    50    26    50    1
    51    26    51    1
    52    26    52    1
    53    27    28    2
    54    27    53    1
    55    29    30   ar
    56    29    54    1
    57    30    55    1
@<TRIPOS>SUBSTRUCTURE
     1 ZINC000013809319        1 TEMP              0 ****  ****    0 ROOT


##########                                Name:    ZINC000642096826
##########                DOCK_Rotatable_Bonds:                  12
##########                         Heavy_Atoms:                  25
##########                    Molecular_Weight:             345.485
##########                DOCK_Rotatable_Bonds:                  12
##########                       Formal_Charge:          0.00999919
##########                     HBond_Acceptors:                   5
##########                        HBond_Donors:                   1
##########                         Heavy_Atoms:                  25
##########                          Grid_Score:          -38.768497
##########                     Grid_vdw_energy:          -37.776901
##########                      Grid_es_energy:           -0.991597
##########           Internal_energy_repulsive:           27.403923

@<TRIPOS>MOLECULE
ZINC000642096826
 56 57 1 0 0
SMALL
USER_CHARGES


@<TRIPOS>ATOM
      1 C1        -15.9726   -1.4414   59.2174 C.3     1  ZINC000642096826   -0.1500
      2 C2        -16.4316   -2.8834   58.9912 C.3     1  ZINC000642096826   -0.1400
      3 C3        -15.3197   -3.8450   59.4152 C.3     1  ZINC000642096826    0.1200
      4 N4        -14.1297   -3.6079   58.5944 N.am    1  ZINC000642096826   -0.6200
      5 C5        -14.0334   -4.1970   57.2565 C.3     1  ZINC000642096826    0.1100
      6 C6        -14.4408   -3.1572   56.2107 C.3     1  ZINC000642096826   -0.1400
      7 C7        -14.3415   -3.7729   54.8136 C.3     1  ZINC000642096826   -0.1500
      8 C8        -13.1235   -2.8477   59.0699 C.2     1  ZINC000642096826    0.5200
      9 O9        -13.2026   -2.3612   60.1780 O.2     1  ZINC000642096826   -0.5200
     10 C10       -11.9001   -2.6024   58.2247 C.3     1  ZINC000642096826    0.0400
     11 N11       -10.7452   -3.2827   58.8258 N.3     1  ZINC000642096826   -0.5200
     12 C12       -10.4825   -4.5640   58.1571 C.3     1  ZINC000642096826    0.0100
     13 C13        -9.5552   -2.4218   58.8002 C.3     1  ZINC000642096826    0.0900
     14 C14        -9.4711   -1.6427   60.0875 C.ar    1  ZINC000642096826   -0.0500
     15 C15        -8.8702   -2.2094   61.1975 C.ar    1  ZINC000642096826   -0.1000
     16 C16        -8.7904   -1.5018   62.3791 C.ar    1  ZINC000642096826   -0.0600
     17 C17        -9.3171   -0.2113   62.4530 C.ar    1  ZINC000642096826   -0.1400
     18 C18        -9.2347    0.5530   63.7159 C.2     1  ZINC000642096826    0.5600
     19 O19       -10.0778    1.3888   63.9767 O.2     1  ZINC000642096826   -0.5300
     20 N20        -8.2246    0.3229   64.5780 N.am    1  ZINC000642096826   -0.7000
     21 C21        -8.1419    1.0814   65.8288 C.3     1  ZINC000642096826    0.0800
     22 C22        -7.8647    0.2978   67.1132 C.3     1  ZINC000642096826   -0.1900
     23 C23        -6.7732    1.1810   66.5053 C.3     1  ZINC000642096826   -0.1900
     24 C24        -9.9216    0.3546   61.3295 C.ar    1  ZINC000642096826   -0.0900
     25 C25        -9.9902   -0.3619   60.1525 C.ar    1  ZINC000642096826   -0.1200
     26 H26       -15.7474   -1.2933   60.2736 H       1  ZINC000642096826    0.0600
     27 H27       -15.0788   -1.2475   58.6246 H       1  ZINC000642096826    0.0600
     28 H28       -16.7647   -0.7563   58.9152 H       1  ZINC000642096826    0.0600
     29 H29       -17.3255   -3.0773   59.5840 H       1  ZINC000642096826    0.0600
     30 H30       -16.6569   -3.0315   57.9350 H       1  ZINC000642096826    0.0600
     31 H31       -15.0763   -3.6789   60.4646 H       1  ZINC000642096826    0.0800
     32 H32       -15.6565   -4.8726   59.2786 H       1  ZINC000642096826    0.0800
     33 H33       -13.0071   -4.5148   57.0724 H       1  ZINC000642096826    0.0800
     34 H34       -14.6979   -5.0586   57.1902 H       1  ZINC000642096826    0.0800
     35 H35       -15.4667   -2.8389   56.3954 H       1  ZINC000642096826    0.0700
     36 H36       -13.7758   -2.2961   56.2763 H       1  ZINC000642096826    0.0700
     37 H37       -14.6316   -3.0321   54.0686 H       1  ZINC000642096826    0.0600
     38 H38       -13.3154   -4.0913   54.6290 H       1  ZINC000642096826    0.0600
     39 H39       -15.0065   -4.6340   54.7480 H       1  ZINC000642096826    0.0600
     40 H40       -12.0685   -2.9909   57.2204 H       1  ZINC000642096826    0.0600
     41 H41       -11.7039   -1.5315   58.1719 H       1  ZINC000642096826    0.1000
     42 H42       -10.2738   -4.3872   57.1021 H       1  ZINC000642096826    0.0200
     43 H43        -9.6227   -5.0467   58.6217 H       1  ZINC000642096826    0.0700
     44 H44       -11.3561   -5.2090   58.2516 H       1  ZINC000642096826    0.0900
     45 H45        -8.6632   -3.0383   58.6897 H       1  ZINC000642096826    0.0500
     46 H46        -9.6252   -1.7301   57.9608 H       1  ZINC000642096826    0.0900
     47 H47        -8.4630   -3.2080   61.1390 H       1  ZINC000642096826    0.1300
     48 H48        -8.3217   -1.9455   63.2451 H       1  ZINC000642096826    0.1400
     49 H49        -7.5525   -0.3449   64.3705 H       1  ZINC000642096826    0.4000
     50 H50        -8.8020    1.9460   65.8987 H       1  ZINC000642096826    0.1400
     51 H51        -8.3426    0.6466   68.0286 H       1  ZINC000642096826    0.1000
     52 H52        -7.7439   -0.7821   67.0278 H       1  ZINC000642096826    0.1000
     53 H53        -5.9344    0.6821   66.0200 H       1  ZINC000642096826    0.1000
     54 H54        -6.5331    2.1109   67.0208 H       1  ZINC000642096826    0.1100
     55 H55       -10.3314    1.3526   61.3803 H       1  ZINC000642096826    0.1200
     56 H56       -10.4574    0.0750   59.2823 H       1  ZINC000642096826    0.1300
@<TRIPOS>BOND
     1     1     2    1
     2     1    26    1
     3     1    27    1
     4     1    28    1
     5     2     3    1
     6     2    29    1
     7     2    30    1
     8     3     4    1
     9     3    31    1
    10     3    32    1
    11     4     5    1
    12     4     8   am
    13     5     6    1
    14     5    33    1
    15     5    34    1
    16     6     7    1
    17     6    35    1
    18     6    36    1
    19     7    37    1
    20     7    38    1
    21     7    39    1
    22     8     9    2
    23     8    10    1
    24    10    11    1
    25    10    40    1
    26    10    41    1
    27    11    12    1
    28    11    13    1
    29    12    42    1
    30    12    43    1
    31    12    44    1
    32    13    14    1
    33    13    45    1
    34    13    46    1
    35    14    25   ar
    36    14    15   ar
    37    15    16   ar
    38    15    47    1
    39    16    17   ar
    40    16    48    1
    41    17    18    1
    42    17    24   ar
    43    18    19    2
    44    18    20   am
    45    20    21    1
    46    20    49    1
    47    21    23    1
    48    21    22    1
    49    21    50    1
    50    22    23    1
    51    22    51    1
    52    22    52    1
    53    23    53    1
    54    23    54    1
    55    24    25   ar
    56    24    55    1
    57    25    56    1
@<TRIPOS>SUBSTRUCTURE
     1 ZINC000642096826        1 TEMP              0 ****  ****    0 ROOT


##########                                Name:    ZINC000435005159
##########                DOCK_Rotatable_Bonds:                  12
##########                         Heavy_Atoms:                  30
##########                    Molecular_Weight:             401.508
##########                DOCK_Rotatable_Bonds:                  12
##########                       Formal_Charge:          -0.0399985
##########                     HBond_Acceptors:                   5
##########                        HBond_Donors:                   2
##########                         Heavy_Atoms:                  30
##########                          Grid_Score:          -38.736343
##########                     Grid_vdw_energy:          -39.373688
##########                      Grid_es_energy:            0.637346
##########           Internal_energy_repulsive:           12.948719

@<TRIPOS>MOLECULE
ZINC000435005159
 57 59 1 0 0
SMALL
USER_CHARGES


@<TRIPOS>ATOM
      1 O1        -13.8982   -2.6075   54.5498 O.2     1  ZINC000435005159   -0.5300
      2 C2        -12.9034   -3.2971   54.4748 C.2     1  ZINC000435005159    0.5200
      3 C3        -12.4476   -3.8192   53.1367 C.3     1  ZINC000435005159   -0.1400
      4 C4        -11.0570   -3.2653   52.8198 C.3     1  ZINC000435005159   -0.1200
      5 C5        -11.1409   -1.7480   52.6418 C.3     1  ZINC000435005159    0.1200
      6 N6         -9.8485   -1.2388   52.1760 N.am    1  ZINC000435005159   -0.7200
      7 C7         -9.4372   -0.0088   52.5424 C.2     1  ZINC000435005159    0.5600
      8 O8        -10.1389    0.6786   53.2583 O.2     1  ZINC000435005159   -0.5300
      9 C9         -8.1323    0.5043   52.0737 C.ar    1  ZINC000435005159   -0.1900
     10 C10        -7.2937   -0.2950   51.2881 C.ar    1  ZINC000435005159   -0.0200
     11 C11        -6.0828    0.2328   50.8748 C.ar    1  ZINC000435005159   -0.1800
     12 C12        -5.7432    1.5206   51.2475 C.ar    1  ZINC000435005159    0.1200
     13 N13        -6.5538    2.2512   51.9895 N.ar    1  ZINC000435005159   -0.4900
     14 C14        -7.7183    1.7960   52.4023 C.ar    1  ZINC000435005159    0.1400
     15 N15       -12.2022   -3.5919   55.5875 N.am    1  ZINC000435005159   -0.7300
     16 C16       -12.6454   -3.0844   56.8884 C.3     1  ZINC000435005159    0.1900
     17 H17       -13.0205   -2.0674   56.7731 H       1  ZINC000435005159    0.1000
     18 C18       -13.7599   -3.9803   57.4326 C.3     1  ZINC000435005159   -0.1200
     19 C19       -14.9807   -3.1242   57.7755 C.3     1  ZINC000435005159   -0.0800
     20 C20       -14.7024   -2.3304   59.0260 C.ar    1  ZINC000435005159   -0.0800
     21 C21       -14.6444   -0.9504   58.9700 C.ar    1  ZINC000435005159   -0.1200
     22 C22       -14.3893   -0.2223   60.1170 C.ar    1  ZINC000435005159   -0.1200
     23 C23       -14.1924   -0.8741   61.3200 C.ar    1  ZINC000435005159   -0.1200
     24 C24       -14.2513   -2.2541   61.3761 C.ar    1  ZINC000435005159   -0.1200
     25 C25       -14.5108   -2.9820   60.2299 C.ar    1  ZINC000435005159   -0.1200
     26 C26       -11.4850   -3.0858   57.8500 C.ar    1  ZINC000435005159   -0.1000
     27 C27       -10.8126   -4.2631   58.1198 C.ar    1  ZINC000435005159   -0.1100
     28 C28        -9.7483   -4.2645   59.0019 C.ar    1  ZINC000435005159   -0.1200
     29 C29        -9.3560   -3.0885   59.6138 C.ar    1  ZINC000435005159   -0.1200
     30 C30       -10.0279   -1.9112   59.3431 C.ar    1  ZINC000435005159   -0.1200
     31 C31       -11.0895   -1.9090   58.4578 C.ar    1  ZINC000435005159   -0.1000
     32 H32       -12.4068   -4.9082   53.1662 H       1  ZINC000435005159    0.1000
     33 H33       -13.1492   -3.5027   52.3650 H       1  ZINC000435005159    0.1000
     34 H34       -10.3777   -3.4980   53.6398 H       1  ZINC000435005159    0.0800
     35 H35       -10.6860   -3.7190   51.9008 H       1  ZINC000435005159    0.0800
     36 H36       -11.9110   -1.5102   51.9081 H       1  ZINC000435005159    0.0700
     37 H37       -11.3918   -1.2836   53.5956 H       1  ZINC000435005159    0.0700
     38 H38        -9.2891   -1.7869   51.6037 H       1  ZINC000435005159    0.4000
     39 H39        -7.5839   -1.2980   51.0118 H       1  ZINC000435005159    0.1500
     40 H40        -5.4101   -0.3550   50.2680 H       1  ZINC000435005159    0.1500
     41 H41        -4.7990    1.9350   50.9264 H       1  ZINC000435005159    0.1600
     42 H42        -8.3545    2.4243   53.0080 H       1  ZINC000435005159    0.1600
     43 H43       -11.4044   -4.1402   55.5270 H       1  ZINC000435005159    0.4000
     44 H44       -14.0338   -4.7181   56.6785 H       1  ZINC000435005159    0.0700
     45 H45       -13.4103   -4.4906   58.3301 H       1  ZINC000435005159    0.0800
     46 H46       -15.1895   -2.4423   56.9513 H       1  ZINC000435005159    0.0700
     47 H47       -15.8431   -3.7704   57.9399 H       1  ZINC000435005159    0.0700
     48 H48       -14.7981   -0.4411   58.0301 H       1  ZINC000435005159    0.1200
     49 H49       -14.3432    0.8559   60.0732 H       1  ZINC000435005159    0.1200
     50 H50       -13.9924   -0.3053   62.2160 H       1  ZINC000435005159    0.1200
     51 H51       -14.0972   -2.7634   62.3159 H       1  ZINC000435005159    0.1200
     52 H52       -14.5567   -4.0601   60.2738 H       1  ZINC000435005159    0.1200
     53 H53       -11.1190   -5.1818   57.6419 H       1  ZINC000435005159    0.1200
     54 H54        -9.2234   -5.1844   59.2134 H       1  ZINC000435005159    0.1200
     55 H55        -8.5249   -3.0898   60.3033 H       1  ZINC000435005159    0.1200
     56 H56        -9.7217   -0.9925   59.8213 H       1  ZINC000435005159    0.1200
     57 H57       -11.6144   -0.9891   58.2463 H       1  ZINC000435005159    0.1200
@<TRIPOS>BOND
     1     1     2    2
     2     2     3    1
     3     2    15   am
     4     3     4    1
     5     3    32    1
     6     3    33    1
     7     4     5    1
     8     4    34    1
     9     4    35    1
    10     5     6    1
    11     5    36    1
    12     5    37    1
    13     6     7   am
    14     6    38    1
    15     7     8    2
    16     7     9    1
    17     9    14   ar
    18     9    10   ar
    19    10    11   ar
    20    10    39    1
    21    11    12   ar
    22    11    40    1
    23    12    13   ar
    24    12    41    1
    25    13    14   ar
    26    14    42    1
    27    15    16    1
    28    15    43    1
    29    16    17    1
    30    16    18    1
    31    16    26    1
    32    18    19    1
    33    18    44    1
    34    18    45    1
    35    19    20    1
    36    19    46    1
    37    19    47    1
    38    20    25   ar
    39    20    21   ar
    40    21    22   ar
    41    21    48    1
    42    22    23   ar
    43    22    49    1
    44    23    24   ar
    45    23    50    1
    46    24    25   ar
    47    24    51    1
    48    25    52    1
    49    26    31   ar
    50    26    27   ar
    51    27    28   ar
    52    27    53    1
    53    28    29   ar
    54    28    54    1
    55    29    30   ar
    56    29    55    1
    57    30    31   ar
    58    30    56    1
    59    31    57    1
@<TRIPOS>SUBSTRUCTURE
     1 ZINC000435005159        1 TEMP              0 ****  ****    0 ROOT


##########                                Name:     oleObject17.pdb
##########                DOCK_Rotatable_Bonds:                   8
##########                         Heavy_Atoms:                  29
##########                    Molecular_Weight:             435.393
##########                DOCK_Rotatable_Bonds:                   8
##########                       Formal_Charge:         0.000400059
##########                     HBond_Acceptors:                   6
##########                        HBond_Donors:                   0
##########                         Heavy_Atoms:                  29
##########                          Grid_Score:          -38.559181
##########                     Grid_vdw_energy:          -37.739559
##########                      Grid_es_energy:           -0.819623
##########           Internal_energy_repulsive:           19.007120

@<TRIPOS>MOLECULE
oleObject17.pdb
 57 59 1 0 0
SMALL
NO_CHARGES


@<TRIPOS>ATOM
      1 C         -13.0319   -1.8589   53.5479 C.3     1  UNL         0.0391
      2 C         -13.0360   -0.8326   52.4128 C.ar    1  UNL        -0.0277
      3 C         -12.4710    0.4609   52.5454 C.ar    1  UNL        -0.0463
      4 C         -12.5430    1.3619   51.4646 C.ar    1  UNL        -0.0590
      5 C         -13.1626    0.9920   50.2621 C.ar    1  UNL        -0.0620
      6 C         -13.7057   -0.2921   50.1235 C.ar    1  UNL        -0.0619
      7 C         -13.6363   -1.1984   51.1919 C.ar    1  UNL        -0.0572
      8 C         -11.7756    0.9160   53.8237 C.3     1  UNL        -0.0394
      9 N         -11.8170   -2.7017   53.5518 N.am    1  UNL        -0.3003
     10 C         -11.4696   -3.4577   54.6712 C.2     1  UNL         0.2175
     11 O         -10.3350   -3.8899   54.7838 O.2     1  UNL        -0.2772
     12 C         -12.4186   -3.3648   55.8952 C.3     1  UNL         0.0384
     13 C         -11.9959   -2.2611   56.8975 C.3     1  UNL        -0.0289
     14 C         -10.6906   -2.6332   57.6273 C.3     1  UNL        -0.0010
     15 N         -10.8070   -3.9262   58.3368 N.4     1  UNL        -0.3010
     16 C         -11.2708   -5.0510   57.4909 C.3     1  UNL        -0.0010
     17 C         -12.5401   -4.7054   56.6701 C.3     1  UNL        -0.0289
     18 C          -9.6219   -4.2504   59.1634 C.3     1  UNL         0.0222
     19 C          -9.1270   -3.0678   60.0281 C.3     1  UNL         0.0661
     20 O         -10.1900   -2.6782   60.9141 O.3     1  UNL        -0.3432
     21 C         -10.1047   -1.5810   61.7498 C.ar    1  UNL         0.0937
     22 C          -8.9548   -1.3220   62.5266 C.ar    1  UNL        -0.0288
     23 C          -8.9030   -0.1912   63.3581 C.ar    1  UNL        -0.0408
     24 C          -9.9977    0.6850   63.4215 C.ar    1  UNL         0.0422
     25 C         -11.1464    0.4324   62.6554 C.ar    1  UNL        -0.0221
     26 C         -11.2006   -0.6974   61.8221 C.ar    1  UNL         0.0723
     27 CL        -12.6482   -0.9809   60.8735 Cl      1  UNL        -0.0814
     28 CL         -9.9301    2.0941   64.4582 Cl      1  UNL        -0.0843
     29 C         -11.0086   -2.6819   52.3190 C.3     1  UNL         0.0031
     30 H         -13.9060   -2.5169   53.4889 H       1  UNL         0.0520
     31 H         -13.1102   -1.3193   54.5000 H       1  UNL         0.0520
     32 H         -12.1172    2.3571   51.5546 H       1  UNL         0.0626
     33 H         -13.2149    1.6973   49.4374 H       1  UNL         0.0623
     34 H         -14.1812   -0.5843   49.1917 H       1  UNL         0.0623
     35 H         -14.0647   -2.1894   51.0747 H       1  UNL         0.0626
     36 H         -10.9811    0.2173   54.1132 H       1  UNL         0.0280
     37 H         -12.4841    0.9926   54.6563 H       1  UNL         0.0280
     38 H         -11.3087    1.9012   53.7024 H       1  UNL         0.0280
     39 H         -13.4161   -3.1181   55.5128 H       1  UNL         0.0402
     40 H         -12.7914   -2.1252   57.6416 H       1  UNL         0.0288
     41 H         -11.8760   -1.2949   56.3964 H       1  UNL         0.0288
     42 H         -10.4423   -1.8366   58.3403 H       1  UNL         0.0431
     43 H          -9.8835   -2.6828   56.8876 H       1  UNL         0.0431
     44 H         -11.4875   -5.9216   58.1230 H       1  UNL         0.0431
     45 H         -10.4738   -5.3472   56.7998 H       1  UNL         0.0431
     46 H         -13.3901   -4.6365   57.3612 H       1  UNL         0.0288
     47 H         -12.7694   -5.5243   55.9762 H       1  UNL         0.0288
     48 H          -8.8008   -4.5795   58.5136 H       1  UNL         0.0455
     49 H          -9.8648   -5.0894   59.8280 H       1  UNL         0.0455
     50 H          -8.8592   -2.2212   59.3857 H       1  UNL         0.0586
     51 H          -8.2447   -3.3683   60.6060 H       1  UNL         0.0586
     52 H          -8.0982   -1.9875   62.4963 H       1  UNL         0.0651
     53 H          -8.0150    0.0035   63.9529 H       1  UNL         0.0639
     54 H         -11.9931    1.1112   62.7057 H       1  UNL         0.0655
     55 H         -11.0469   -1.6878   51.8558 H       1  UNL         0.0433
     56 H         -11.3918   -3.4211   51.6052 H       1  UNL         0.0433
     57 H          -9.9606   -2.9099   52.5490 H       1  UNL         0.0433
@<TRIPOS>BOND
     1     1     2    1
     2     1     9    1
     3     1    30    1
     4     1    31    1
     5     2     3   ar
     6     2     7   ar
     7     3     4   ar
     8     3     8    1
     9     4     5   ar
    10     4    32    1
    11     5     6   ar
    12     5    33    1
    13     6     7   ar
    14     6    34    1
    15     7    35    1
    16     8    36    1
    17     8    37    1
    18     8    38    1
    19     9    10   am
    20     9    29    1
    21    10    11    2
    22    10    12    1
    23    12    13    1
    24    12    17    1
    25    12    39    1
    26    13    14    1
    27    13    40    1
    28    13    41    1
    29    14    15    1
    30    14    42    1
    31    14    43    1
    32    15    16    1
    33    15    18    1
    34    16    17    1
    35    16    44    1
    36    16    45    1
    37    17    46    1
    38    17    47    1
    39    18    19    1
    40    18    48    1
    41    18    49    1
    42    19    20    1
    43    19    50    1
    44    19    51    1
    45    20    21    1
    46    21    22   ar
    47    21    26   ar
    48    22    23   ar
    49    22    52    1
    50    23    24   ar
    51    23    53    1
    52    24    25   ar
    53    24    28    1
    54    25    26   ar
    55    25    54    1
    56    26    27    1
    57    29    55    1
    58    29    56    1
    59    29    57    1
@<TRIPOS>SUBSTRUCTURE
     1 UNL         1 TEMP              0 ****  ****    0 ROOT


##########                                Name:    ZINC001169875900
##########                DOCK_Rotatable_Bonds:                   9
##########                         Heavy_Atoms:                  24
##########                    Molecular_Weight:             329.399
##########                DOCK_Rotatable_Bonds:                   9
##########                       Formal_Charge:          -0.0500002
##########                     HBond_Acceptors:                   6
##########                        HBond_Donors:                   1
##########                         Heavy_Atoms:                  24
##########                          Grid_Score:          -38.533142
##########                     Grid_vdw_energy:          -38.201241
##########                      Grid_es_energy:           -0.331902
##########           Internal_energy_repulsive:           10.381501

@<TRIPOS>MOLECULE
ZINC001169875900
 47 48 1 0 0
SMALL
USER_CHARGES


@<TRIPOS>ATOM
      1 C1        -11.8478   -3.9252   53.3594 C.3     1  ZINC001169875900   -0.1500
      2 C2        -12.2767   -2.6062   52.7134 C.3     1  ZINC001169875900   -0.1300
      3 C3        -11.1240   -2.0505   51.8748 C.3     1  ZINC001169875900    0.0700
      4 O4         -9.9142   -2.1038   52.6334 O.3     1  ZINC001169875900   -0.3100
      5 C5         -8.9294   -1.2363   52.2850 C.ar    1  ZINC001169875900    0.2700
      6 N6         -8.0709   -1.5695   51.3366 N.ar    1  ZINC001169875900   -0.5000
      7 C7         -7.0944   -0.7612   50.9693 C.ar    1  ZINC001169875900    0.0600
      8 C8         -6.9387    0.4798   51.5681 C.ar    1  ZINC001169875900    0.1400
      9 N9         -5.9004    1.3319   51.1740 N.pl3   1  ZINC001169875900   -0.7400
     10 C10        -4.9521    0.9027   50.1431 C.3     1  ZINC001169875900    0.1800
     11 C11        -3.7905    1.8618   50.0986 C.ar    1  ZINC001169875900    0.1000
     12 C12        -3.2658    2.3552   51.2826 C.ar    1  ZINC001169875900   -0.1200
     13 C13        -2.1973    3.2372   51.2370 C.ar    1  ZINC001169875900   -0.0800
     14 C14        -1.6889    3.5962   49.9988 C.ar    1  ZINC001169875900   -0.1000
     15 C15        -2.2663    3.0610   48.8490 C.ar    1  ZINC001169875900    0.0900
     16 C16        -1.7348    3.4346   47.5184 C.2     1  ZINC001169875900    0.5200
     17 O17        -1.0109    4.4028   47.4037 O.2     1  ZINC001169875900   -0.5000
     18 O18        -2.0540    2.7005   46.4354 O.3     1  ZINC001169875900   -0.3300
     19 C19        -1.5828    1.3274   46.4075 C.3     1  ZINC001169875900    0.0600
     20 C20        -1.9635    0.6846   45.0723 C.3     1  ZINC001169875900   -0.1500
     21 N21        -3.2854    2.2150   48.9370 N.ar    1  ZINC001169875900   -0.4200
     22 C22        -7.8291    0.8676   52.5679 C.ar    1  ZINC001169875900   -0.1200
     23 C23        -8.8396   -0.0071   52.9253 C.ar    1  ZINC001169875900   -0.1000
     24 C24        -9.8270    0.3666   54.0007 C.3     1  ZINC001169875900   -0.1000
     25 H25       -10.9831   -3.7518   54.0000 H       1  ZINC001169875900    0.0600
     26 H26       -12.6691   -4.3210   53.9569 H       1  ZINC001169875900    0.0600
     27 H27       -11.5858   -4.6424   52.5817 H       1  ZINC001169875900    0.0600
     28 H28       -12.5387   -1.8890   53.4913 H       1  ZINC001169875900    0.0700
     29 H29       -13.1414   -2.7796   52.0729 H       1  ZINC001169875900    0.0700
     30 H30       -11.3375   -1.0166   51.6035 H       1  ZINC001169875900    0.0600
     31 H31       -11.0120   -2.6479   50.9699 H       1  ZINC001169875900    0.0600
     32 H32        -6.4088   -1.0699   50.1941 H       1  ZINC001169875900    0.1500
     33 H33        -5.8089    2.2064   51.5834 H       1  ZINC001169875900    0.4000
     34 H34        -4.5884   -0.0977   50.3777 H       1  ZINC001169875900    0.0800
     35 H35        -5.4502    0.8901   49.1737 H       1  ZINC001169875900    0.0800
     36 H36        -3.6855    2.0556   52.2315 H       1  ZINC001169875900    0.1500
     37 H37        -1.7707    3.6352   52.1458 H       1  ZINC001169875900    0.1500
     38 H38        -0.8571    4.2813   49.9260 H       1  ZINC001169875900    0.1500
     39 H39        -0.4989    1.3129   46.5218 H       1  ZINC001169875900    0.0700
     40 H40        -2.0416    0.7691   47.2235 H       1  ZINC001169875900    0.0700
     41 H41        -3.0473    0.6990   44.9580 H       1  ZINC001169875900    0.0700
     42 H42        -1.5046    1.2428   44.2564 H       1  ZINC001169875900    0.0700
     43 H43        -1.6096   -0.3462   45.0514 H       1  ZINC001169875900    0.0800
     44 H44        -7.7323    1.8280   53.0523 H       1  ZINC001169875900    0.1400
     45 H45       -10.6790    0.8761   53.5505 H       1  ZINC001169875900    0.0700
     46 H46        -9.3465    1.0291   54.7208 H       1  ZINC001169875900    0.0700
     47 H47       -10.1696   -0.5349   54.5087 H       1  ZINC001169875900    0.0700
@<TRIPOS>BOND
     1     1     2    1
     2     1    25    1
     3     1    26    1
     4     1    27    1
     5     2     3    1
     6     2    28    1
     7     2    29    1
     8     3     4    1
     9     3    30    1
    10     3    31    1
    11     4     5    1
    12     5    23   ar
    13     5     6   ar
    14     6     7   ar
    15     7     8   ar
    16     7    32    1
    17     8     9    1
    18     8    22   ar
    19     9    10    1
    20     9    33    1
    21    10    11    1
    22    10    34    1
    23    10    35    1
    24    11    21   ar
    25    11    12   ar
    26    12    13   ar
    27    12    36    1
    28    13    14   ar
    29    13    37    1
    30    14    15   ar
    31    14    38    1
    32    15    16    1
    33    15    21   ar
    34    16    17    2
    35    16    18    1
    36    18    19    1
    37    19    20    1
    38    19    39    1
    39    19    40    1
    40    20    41    1
    41    20    42    1
    42    20    43    1
    43    22    23   ar
    44    22    44    1
    45    23    24    1
    46    24    45    1
    47    24    46    1
    48    24    47    1
@<TRIPOS>SUBSTRUCTURE
     1 ZINC001169875900        1 TEMP              0 ****  ****    0 ROOT


##########                                Name:    ZINC000342525234
##########                DOCK_Rotatable_Bonds:                   6
##########                         Heavy_Atoms:                  25
##########                    Molecular_Weight:             333.349
##########                DOCK_Rotatable_Bonds:                   6
##########                       Formal_Charge:           0.0500003
##########                     HBond_Acceptors:                   7
##########                        HBond_Donors:                   2
##########                         Heavy_Atoms:                  25
##########                          Grid_Score:          -38.503548
##########                     Grid_vdw_energy:          -35.978386
##########                      Grid_es_energy:           -2.525163
##########           Internal_energy_repulsive:            6.449716

@<TRIPOS>MOLECULE
ZINC000342525234
 40 43 1 0 0
SMALL
USER_CHARGES


@<TRIPOS>ATOM
      1 O1        -12.6483   -1.5756   55.4113 O.2     1  <0>        -0.5100
      2 C2        -12.1709   -2.4627   54.7322 C.2     1  <0>         0.6000
      3 N3        -12.6686   -3.7128   54.8097 N.am    1  <0>        -0.7100
      4 C4        -13.7812   -4.0033   55.7174 C.3     1  <0>         0.1200
      5 C5        -13.3085   -4.9600   56.8139 C.3     1  <0>        -0.0900
      6 C6        -12.4141   -4.2199   57.7749 C.ar    1  <0>        -0.0400
      7 C7        -11.1049   -4.5648   57.8562 C.ar    1  <0>        -0.1000
      8 C8        -10.2576   -3.8786   58.7528 C.ar    1  <0>         0.1100
      9 N9         -8.9781   -3.9614   59.0689 N.2     1  <0>        -0.3100
     10 N10        -8.6884   -3.0034   60.0471 N.pl3   1  <0>        -0.4200
     11 C11        -9.7945   -2.3107   60.3505 C.2     1  <0>         0.0900
     12 C12       -10.8294   -2.8021   59.5766 C.ar    1  <0>        -0.2100
     13 C13       -12.2004   -2.4970   59.4393 C.ar    1  <0>        -0.0400
     14 C14       -12.9551   -3.1939   58.5531 C.ar    1  <0>        -0.1500
     15 C15       -11.0443   -2.1686   53.8130 C.2     1  <0>        -0.0200
     16 N16       -10.5345   -2.9726   52.9123 N.2     1  <0>        -0.3200
     17 O17        -9.6220   -2.4533   52.3132 O.3     1  <0>         0.1400
     18 C18        -9.3928   -1.2001   52.7433 C.2     1  <0>         0.0100
     19 C19        -8.3599   -0.2668   52.2440 C.ar    1  <0>         0.0200
     20 C20        -7.4403   -0.6671   51.2677 C.ar    1  <0>        -0.1400
     21 C21        -6.4938    0.2363   50.8302 C.ar    1  <0>         0.1100
     22 N22        -6.4486    1.4607   51.3195 N.ar    1  <0>        -0.4800
     23 C23        -7.2960    1.8784   52.2403 C.ar    1  <0>         0.1100
     24 C24        -8.2784    1.0430   52.7303 C.ar    1  <0>        -0.1500
     25 C25       -10.3076   -0.9579   53.7294 C.2     1  <0>        -0.1500
     26 H26       -12.2900   -4.4202   54.2646 H       1  <0>         0.4100
     27 H27       -14.1321   -3.0761   56.1705 H       1  <0>         0.0800
     28 H28       -14.5950   -4.4651   55.1584 H       1  <0>         0.0800
     29 H29       -14.1721   -5.3528   57.3504 H       1  <0>         0.0900
     30 H30       -12.7549   -5.7838   56.3633 H       1  <0>         0.0800
     31 H31       -10.7131   -5.3597   57.2391 H       1  <0>         0.1300
     32 H32        -7.8160   -2.8619   60.4467 H       1  <0>         0.4500
     33 H33        -9.8652   -1.5104   61.0721 H       1  <0>         0.1900
     34 H34       -12.6448   -1.7113   60.0322 H       1  <0>         0.1300
     35 H35       -14.0035   -2.9549   58.4530 H       1  <0>         0.1200
     36 H36        -7.4711   -1.6679   50.8632 H       1  <0>         0.1400
     37 H37        -5.7798   -0.0630   50.0771 H       1  <0>         0.1700
     38 H38        -7.2221    2.8895   52.6126 H       1  <0>         0.1700
     39 H39        -8.9688    1.3918   53.4842 H       1  <0>         0.1500
     40 H40       -10.4358   -0.0582   54.3130 H       1  <0>         0.1900
@<TRIPOS>BOND
     1     1     2    2
     2     2     3   am
     3     2    15    1
     4     3     4    1
     5     3    26    1
     6     4     5    1
     7     4    27    1
     8     4    28    1
     9     5     6    1
    10     5    29    1
    11     5    30    1
    12     6    14   ar
    13     6     7   ar
    14     7     8   ar
    15     7    31    1
    16     8    12   ar
    17     8     9    2
    18     9    10    1
    19    10    11    1
    20    10    32    1
    21    11    12    2
    22    11    33    1
    23    12    13   ar
    24    13    14   ar
    25    13    34    1
    26    14    35    1
    27    15    25    1
    28    15    16    2
    29    16    17    1
    30    17    18    1
    31    18    19    1
    32    18    25    2
    33    19    24   ar
    34    19    20   ar
    35    20    21   ar
    36    20    36    1
    37    21    22   ar
    38    21    37    1
    39    22    23   ar
    40    23    24   ar
    41    23    38    1
    42    24    39    1
    43    25    40    1
@<TRIPOS>SUBSTRUCTURE
     1 <0>         1 TEMP              0 ****  ****    0 ROOT


##########                                Name:    ZINC000489986384
##########                DOCK_Rotatable_Bonds:                  11
##########                         Heavy_Atoms:                  31
##########                    Molecular_Weight:             415.492
##########                DOCK_Rotatable_Bonds:                  11
##########                       Formal_Charge:          -0.0499997
##########                     HBond_Acceptors:                   6
##########                        HBond_Donors:                   2
##########                         Heavy_Atoms:                  31
##########                          Grid_Score:          -38.470150
##########                     Grid_vdw_energy:          -39.174747
##########                      Grid_es_energy:            0.704598
##########           Internal_energy_repulsive:           14.049529

@<TRIPOS>MOLECULE
ZINC000489986384
 56 59 1 0 0
SMALL
USER_CHARGES


@<TRIPOS>ATOM
      1 O1         -7.7098    1.3147   55.8982 O.2     1  ZINC000489986384   -0.5000
      2 C2         -8.9046    1.4142   55.7157 C.2     1  ZINC000489986384    0.4900
      3 C3         -9.4295    1.8057   54.3584 C.3     1  ZINC000489986384    0.0900
      4 N4         -8.9691    0.8384   53.3591 N.pl3   1  ZINC000489986384   -0.4700
      5 C5         -7.8730    0.9763   52.5310 C.ar    1  ZINC000489986384    0.0700
      6 C6         -6.9127    1.9627   52.3546 C.ar    1  ZINC000489986384   -0.1100
      7 C7         -5.9197    1.7887   51.4138 C.ar    1  ZINC000489986384   -0.0900
      8 C8         -5.8752    0.6357   50.6435 C.ar    1  ZINC000489986384   -0.1300
      9 C9         -6.8124   -0.3457   50.8030 C.ar    1  ZINC000489986384   -0.0600
     10 C10        -7.8272   -0.1917   51.7507 C.ar    1  ZINC000489986384    0.0500
     11 N11        -8.8753   -0.9649   52.1346 N.2     1  ZINC000489986384   -0.4600
     12 C12        -9.5387   -0.3649   53.0793 C.2     1  ZINC000489986384    0.2800
     13 C13       -10.7662   -0.9172   53.7571 C.3     1  ZINC000489986384    0.1400
     14 O14       -11.2622   -2.0303   53.0107 O.3     1  ZINC000489986384   -0.3000
     15 C15       -12.2954   -2.7262   53.5540 C.ar    1  ZINC000489986384    0.1300
     16 C16       -12.1975   -4.1002   53.7183 C.ar    1  ZINC000489986384   -0.2100
     17 C17       -13.2490   -4.8052   54.2712 C.ar    1  ZINC000489986384   -0.0800
     18 C18       -14.3985   -4.1426   54.6603 C.ar    1  ZINC000489986384   -0.1600
     19 C19       -14.4988   -2.7733   54.4972 C.ar    1  ZINC000489986384   -0.0800
     20 C20       -13.4476   -2.0628   53.9505 C.ar    1  ZINC000489986384   -0.1500
     21 N21        -9.7634    1.1692   56.7252 N.am    1  ZINC000489986384   -0.7300
     22 C22        -9.2531    0.7886   58.0446 C.3     1  ZINC000489986384    0.1300
     23 C23       -10.4017    0.2489   58.8993 C.3     1  ZINC000489986384   -0.0600
     24 H24       -11.2163    0.9731   58.9124 H       1  ZINC000489986384    0.0900
     25 C25       -10.9016   -1.0703   58.3074 C.3     1  ZINC000489986384    0.0800
     26 O26        -9.8428   -1.6986   57.5818 O.3     1  ZINC000489986384   -0.5700
     27 C27        -9.9144    0.0155   60.3061 C.ar    1  ZINC000489986384   -0.0700
     28 C28       -10.1618    0.9562   61.2882 C.ar    1  ZINC000489986384   -0.1100
     29 C29        -9.7148    0.7422   62.5787 C.ar    1  ZINC000489986384   -0.1200
     30 C30        -9.0206   -0.4128   62.8871 C.ar    1  ZINC000489986384   -0.1200
     31 C31        -8.7739   -1.3539   61.9051 C.ar    1  ZINC000489986384   -0.1200
     32 C32        -9.2247   -1.1419   60.6156 C.ar    1  ZINC000489986384   -0.1100
     33 H33       -10.5193    1.8157   54.3792 H       1  ZINC000489986384    0.1200
     34 H34        -9.0619    2.7986   54.0992 H       1  ZINC000489986384    0.1200
     35 H35        -6.9432    2.8624   52.9512 H       1  ZINC000489986384    0.1200
     36 H36        -5.1718    2.5553   51.2754 H       1  ZINC000489986384    0.1300
     37 H37        -5.0920    0.5128   49.9100 H       1  ZINC000489986384    0.1300
     38 H38        -6.7688   -1.2389   50.1974 H       1  ZINC000489986384    0.1300
     39 H39       -10.5096   -1.2413   54.7656 H       1  ZINC000489986384    0.0800
     40 H40       -11.5323   -0.1435   53.8080 H       1  ZINC000489986384    0.1000
     41 H41       -11.3002   -4.6183   53.4138 H       1  ZINC000489986384    0.1300
     42 H42       -13.1733   -5.8749   54.3993 H       1  ZINC000489986384    0.1300
     43 H43       -15.2195   -4.6957   55.0921 H       1  ZINC000489986384    0.1200
     44 H44       -15.3977   -2.2580   54.8017 H       1  ZINC000489986384    0.1300
     45 H45       -13.5264   -0.9933   53.8234 H       1  ZINC000489986384    0.1300
     46 H46       -10.7191    1.2450   56.5780 H       1  ZINC000489986384    0.4000
     47 H47        -8.4914    0.0174   57.9310 H       1  ZINC000489986384    0.0800
     48 H48        -8.8172    1.6611   58.5312 H       1  ZINC000489986384    0.0800
     49 H49       -11.2308   -1.7280   59.1118 H       1  ZINC000489986384    0.0500
     50 H50       -11.7363   -0.8736   57.6345 H       1  ZINC000489986384    0.0500
     51 H51        -9.4925   -1.1643   56.8558 H       1  ZINC000489986384    0.3800
     52 H52       -10.7042    1.8585   61.0473 H       1  ZINC000489986384    0.1200
     53 H53        -9.9076    1.4775   63.3459 H       1  ZINC000489986384    0.1200
     54 H54        -8.6708   -0.5797   63.8951 H       1  ZINC000489986384    0.1200
     55 H55        -8.2314   -2.2561   62.1460 H       1  ZINC000489986384    0.1200
     56 H56        -9.0319   -1.8772   59.8484 H       1  ZINC000489986384    0.1200
@<TRIPOS>BOND
     1     1     2    2
     2     2     3    1
     3     2    21   am
     4     3     4    1
     5     3    33    1
     6     3    34    1
     7     4    12    1
     8     4     5    1
     9     5    10   ar
    10     5     6   ar
    11     6     7   ar
    12     6    35    1
    13     7     8   ar
    14     7    36    1
    15     8     9   ar
    16     8    37    1
    17     9    10   ar
    18     9    38    1
    19    10    11    1
    20    11    12    2
    21    12    13    1
    22    13    14    1
    23    13    39    1
    24    13    40    1
    25    14    15    1
    26    15    20   ar
    27    15    16   ar
    28    16    17   ar
    29    16    41    1
    30    17    18   ar
    31    17    42    1
    32    18    19   ar
    33    18    43    1
    34    19    20   ar
    35    19    44    1
    36    20    45    1
    37    21    22    1
    38    21    46    1
    39    22    23    1
    40    22    47    1
    41    22    48    1
    42    23    24    1
    43    23    25    1
    44    23    27    1
    45    25    26    1
    46    25    49    1
    47    25    50    1
    48    26    51    1
    49    27    32   ar
    50    27    28   ar
    51    28    29   ar
    52    28    52    1
    53    29    30   ar
    54    29    53    1
    55    30    31   ar
    56    30    54    1
    57    31    32   ar
    58    31    55    1
    59    32    56    1
@<TRIPOS>SUBSTRUCTURE
     1 ZINC000489986384        1 TEMP              0 ****  ****    0 ROOT


##########                                Name:    ZINC001342153661
##########                DOCK_Rotatable_Bonds:                   8
##########                         Heavy_Atoms:                  29
##########                    Molecular_Weight:             395.548
##########                DOCK_Rotatable_Bonds:                   8
##########                       Formal_Charge:          -0.0400005
##########                     HBond_Acceptors:                   6
##########                        HBond_Donors:                   1
##########                         Heavy_Atoms:                  29
##########                          Grid_Score:          -38.435493
##########                     Grid_vdw_energy:          -35.675846
##########                      Grid_es_energy:           -2.759649
##########           Internal_energy_repulsive:           18.371010

@<TRIPOS>MOLECULE
ZINC001342153661
 62 65 1 0 0
SMALL
USER_CHARGES


@<TRIPOS>ATOM
      1 C1        -13.8032   -1.6670   61.1778 C.2     1  ZINC001342153661   -0.1400
      2 C2        -13.7345   -2.2622   60.0129 C.2     1  ZINC001342153661   -0.1600
      3 C3        -14.7082   -3.3599   59.6691 C.3     1  ZINC001342153661   -0.1200
      4 C4        -12.6818   -1.8495   59.0167 C.3     1  ZINC001342153661    0.1500
      5 N5        -11.8692   -3.0133   58.6544 N.pl3   1  ZINC001342153661   -0.4700
      6 C6        -10.8301   -3.5481   59.3646 C.2     1  ZINC001342153661    0.1800
      7 C7        -10.2977   -3.0472   60.6824 C.3     1  ZINC001342153661   -0.0600
      8 C8         -9.0002   -2.2714   60.4467 C.3     1  ZINC001342153661    0.1600
      9 H9         -8.5009   -2.1002   61.4004 H       1  ZINC001342153661    0.1000
     10 O10        -8.1425   -3.0272   59.5891 O.3     1  ZINC001342153661   -0.5400
     11 C11        -9.3168   -0.9474   59.8004 C.ar    1  ZINC001342153661   -0.1700
     12 C12        -9.6784    0.1434   60.5757 C.ar    1  ZINC001342153661   -0.0600
     13 C13        -9.9604    1.3420   59.9379 C.ar    1  ZINC001342153661   -0.1700
     14 C14        -9.8723    1.4088   58.5605 C.ar    1  ZINC001342153661    0.1000
     15 N15        -9.5250    0.3503   57.8546 N.ar    1  ZINC001342153661   -0.4800
     16 C16        -9.2447   -0.8037   58.4276 C.ar    1  ZINC001342153661    0.1100
     17 N17       -10.3864   -4.5713   58.6911 N.2     1  ZINC001342153661   -0.2700
     18 N18       -11.0690   -4.7183   57.6121 N.2     1  ZINC001342153661   -0.3200
     19 C19       -11.9957   -3.7921   57.5412 C.2     1  ZINC001342153661    0.3600
     20 N20       -12.9226   -3.6302   56.5237 N.3     1  ZINC001342153661   -0.4500
     21 C21       -13.5932   -4.8998   56.2158 C.3     1  ZINC001342153661    0.0500
     22 C22       -14.7067   -4.6555   55.1947 C.3     1  ZINC001342153661   -0.1200
     23 C23       -14.1031   -4.0539   53.9226 C.3     1  ZINC001342153661   -0.1200
     24 C24       -13.3694   -2.7580   54.2787 C.3     1  ZINC001342153661   -0.0800
     25 H25       -14.0799   -2.0366   54.6821 H       1  ZINC001342153661    0.0800
     26 C26       -12.7131   -2.1810   53.0228 C.3     1  ZINC001342153661   -0.0800
     27 C27       -13.7834   -1.8621   51.9497 C.3     1  ZINC001342153661   -0.1200
     28 C28       -13.0857   -0.7869   51.0799 C.3     1  ZINC001342153661   -0.1300
     29 C29       -12.3039    0.0720   52.0953 C.3     1  ZINC001342153661   -0.1300
     30 C30       -12.0670   -0.8144   53.3306 C.3     1  ZINC001342153661   -0.1200
     31 C31       -12.2946   -3.0573   55.3263 C.3     1  ZINC001342153661    0.0800
     32 H32       -14.5576   -1.9627   61.8918 H       1  ZINC001342153661    0.1000
     33 H33       -13.1026   -0.8834   61.4259 H       1  ZINC001342153661    0.1100
     34 H34       -15.6229   -2.9221   59.2696 H       1  ZINC001342153661    0.0700
     35 H35       -14.2644   -4.0186   58.9226 H       1  ZINC001342153661    0.0600
     36 H36       -14.9415   -3.9330   60.5665 H       1  ZINC001342153661    0.0700
     37 H37       -13.1631   -1.4502   58.1239 H       1  ZINC001342153661    0.1000
     38 H38       -12.0437   -1.0842   59.4585 H       1  ZINC001342153661    0.1000
     39 H39       -11.0343   -2.3908   61.1461 H       1  ZINC001342153661    0.1100
     40 H40       -10.1005   -3.8937   61.3402 H       1  ZINC001342153661    0.1000
     41 H41        -7.2139   -2.7604   59.6274 H       1  ZINC001342153661    0.3800
     42 H42        -9.7394    0.0616   61.6509 H       1  ZINC001342153661    0.1300
     43 H43       -10.2458    2.2122   60.5104 H       1  ZINC001342153661    0.1400
     44 H44       -10.0907    2.3385   58.0562 H       1  ZINC001342153661    0.1600
     45 H45        -8.9639   -1.6488   57.8164 H       1  ZINC001342153661    0.1500
     46 H46       -12.8693   -5.6021   55.8025 H       1  ZINC001342153661    0.0500
     47 H47       -14.0217   -5.3148   57.1281 H       1  ZINC001342153661    0.0700
     48 H48       -15.1941   -5.6005   54.9547 H       1  ZINC001342153661    0.0800
     49 H49       -15.4383   -3.9639   55.6127 H       1  ZINC001342153661    0.0700
     50 H50       -13.4002   -4.7615   53.4831 H       1  ZINC001342153661    0.0600
     51 H51       -14.8983   -3.8380   53.2090 H       1  ZINC001342153661    0.0700
     52 H52       -11.9699   -2.8743   52.6290 H       1  ZINC001342153661    0.0800
     53 H53       -14.0131   -2.7482   51.3578 H       1  ZINC001342153661    0.0700
     54 H54       -14.6853   -1.4599   52.4111 H       1  ZINC001342153661    0.0700
     55 H55       -12.4031   -1.2544   50.3701 H       1  ZINC001342153661    0.0600
     56 H56       -13.8251   -0.1806   50.5568 H       1  ZINC001342153661    0.0600
     57 H57       -11.3495    0.3793   51.6677 H       1  ZINC001342153661    0.0600
     58 H58       -12.8894    0.9488   52.3716 H       1  ZINC001342153661    0.0600
     59 H59       -12.5375   -0.3677   54.2065 H       1  ZINC001342153661    0.0600
     60 H60       -10.9977   -0.9372   53.5025 H       1  ZINC001342153661    0.0600
     61 H61       -11.7799   -2.1342   55.5924 H       1  ZINC001342153661    0.0900
     62 H62       -11.5768   -3.7683   54.9172 H       1  ZINC001342153661    0.0500
@<TRIPOS>BOND
     1     1     2    2
     2     1    32    1
     3     1    33    1
     4     2     3    1
     5     2     4    1
     6     3    34    1
     7     3    35    1
     8     3    36    1
     9     4     5    1
    10     4    37    1
    11     4    38    1
    12     5    19    1
    13     5     6    1
    14     6     7    1
    15     6    17    2
    16     7     8    1
    17     7    39    1
    18     7    40    1
    19     8     9    1
    20     8    10    1
    21     8    11    1
    22    10    41    1
    23    11    16   ar
    24    11    12   ar
    25    12    13   ar
    26    12    42    1
    27    13    14   ar
    28    13    43    1
    29    14    15   ar
    30    14    44    1
    31    15    16   ar
    32    16    45    1
    33    17    18    1
    34    18    19    2
    35    19    20    1
    36    20    31    1
    37    20    21    1
    38    21    22    1
    39    21    46    1
    40    21    47    1
    41    22    23    1
    42    22    48    1
    43    22    49    1
    44    23    24    1
    45    23    50    1
    46    23    51    1
    47    24    25    1
    48    24    26    1
    49    24    31    1
    50    26    30    1
    51    26    27    1
    52    26    52    1
    53    27    28    1
    54    27    53    1
    55    27    54    1
    56    28    29    1
    57    28    55    1
    58    28    56    1
    59    29    30    1
    60    29    57    1
    61    29    58    1
    62    30    59    1
    63    30    60    1
    64    31    61    1
    65    31    62    1
@<TRIPOS>SUBSTRUCTURE
     1 ZINC001342153661        1 TEMP              0 ****  ****    0 ROOT


##########                                Name:    ZINC000007167963
##########                DOCK_Rotatable_Bonds:                   8
##########                         Heavy_Atoms:                  25
##########                    Molecular_Weight:             378.433
##########                DOCK_Rotatable_Bonds:                   8
##########                       Formal_Charge:        -1.01328e-06
##########                     HBond_Acceptors:                  10
##########                        HBond_Donors:                   3
##########                         Heavy_Atoms:                  25
##########                          Grid_Score:          -38.401772
##########                     Grid_vdw_energy:          -37.133404
##########                      Grid_es_energy:           -1.268368
##########           Internal_energy_repulsive:            7.864378

@<TRIPOS>MOLECULE
ZINC000007167963
 39 41 1 0 0
SMALL
USER_CHARGES


@<TRIPOS>ATOM
      1 C1         -7.1787    2.5693   53.0714 C.3     1  ZINC000007167963   -0.0800
      2 C2         -6.6735    1.6527   51.9870 C.2     1  ZINC000007167963    0.0900
      3 C3         -7.2311    0.4652   51.6248 C.2     1  ZINC000007167963   -0.1500
      4 C4         -8.4318   -0.1712   52.2061 C.2     1  ZINC000007167963    0.2600
      5 N5         -9.1779    0.3132   53.1688 N.2     1  ZINC000007167963   -0.2700
      6 N6        -10.1375   -0.5061   53.4198 N.2     1  ZINC000007167963   -0.2800
      7 C7        -10.0424   -1.5466   52.6272 C.2     1  ZINC000007167963    0.1200
      8 S8        -11.1273   -2.9346   52.5937 S.3     1  ZINC000007167963    0.1500
      9 C9        -12.0777   -2.6270   54.1031 C.3     1  ZINC000007167963   -0.1200
     10 H10       -12.3600   -1.5751   54.1467 H       1  ZINC000007167963    0.1400
     11 C11       -13.3387   -3.4935   54.0973 C.3     1  ZINC000007167963   -0.1500
     12 C12       -11.2369   -2.9717   55.3053 C.2     1  ZINC000007167963    0.5300
     13 O13       -10.3775   -3.8233   55.2200 O.2     1  ZINC000007167963   -0.4900
     14 N14       -11.4399   -2.3337   56.4750 N.am    1  ZINC000007167963   -0.6100
     15 C15       -10.6650   -2.6497   57.5806 C.2     1  ZINC000007167963    0.0800
     16 C16        -9.8041   -1.7830   58.2025 C.2     1  ZINC000007167963   -0.2400
     17 C17        -9.5943   -0.3979   57.7699 C.2     1  ZINC000007167963    0.5900
     18 N18        -9.8852    0.6201   58.6038 N.am    1  ZINC000007167963   -0.8400
     19 O19        -9.1572   -0.1674   56.6576 O.2     1  ZINC000007167963   -0.5600
     20 C20        -9.1257   -2.3803   59.3317 C.2     1  ZINC000007167963   -0.0900
     21 C21        -9.4708   -3.6432   59.5388 C.2     1  ZINC000007167963   -0.2800
     22 S22       -10.6575   -4.1669   58.3572 S.3     1  ZINC000007167963    0.3000
     23 O23        -8.9660   -1.3568   51.8390 O.3     1  ZINC000007167963   -0.2000
     24 C24        -6.3924   -0.0521   50.5358 C.2     1  ZINC000007167963   -0.1800
     25 C25        -5.4241    0.8595   50.3487 C.2     1  ZINC000007167963   -0.0300
     26 O26        -5.6020    1.8713   51.2115 O.3     1  ZINC000007167963   -0.1700
     27 H27        -6.5359    3.4475   53.1335 H       1  ZINC000007167963    0.0800
     28 H28        -8.1972    2.8803   52.8390 H       1  ZINC000007167963    0.1000
     29 H29        -7.1682    2.0432   54.0260 H       1  ZINC000007167963    0.1000
     30 H30       -13.9469   -3.2442   53.2278 H       1  ZINC000007167963    0.0900
     31 H31       -13.0564   -4.5454   54.0536 H       1  ZINC000007167963    0.0800
     32 H32       -13.9110   -3.3083   55.0061 H       1  ZINC000007167963    0.0800
     33 H33       -12.1280   -1.6535   56.5433 H       1  ZINC000007167963    0.4400
     34 H34        -9.7474    1.5365   58.3170 H       1  ZINC000007167963    0.4000
     35 H35       -10.2323    0.4365   59.4907 H       1  ZINC000007167963    0.4100
     36 H36        -8.4100   -1.8513   59.9434 H       1  ZINC000007167963    0.1500
     37 H37        -9.0778   -4.2643   60.3302 H       1  ZINC000007167963    0.1700
     38 H38        -6.5267   -0.9777   49.9958 H       1  ZINC000007167963    0.1600
     39 H39        -4.6318    0.7910   49.6179 H       1  ZINC000007167963    0.2200
@<TRIPOS>BOND
     1     1     2    1
     2     1    27    1
     3     1    28    1
     4     1    29    1
     5     2    26    1
     6     2     3    2
     7     3     4    1
     8     3    24    1
     9     4    23    1
    10     4     5    2
    11     5     6    1
    12     6     7    2
    13     7     8    1
    14     7    23    1
    15     8     9    1
    16     9    10    1
    17     9    11    1
    18     9    12    1
    19    11    30    1
    20    11    31    1
    21    11    32    1
    22    12    13    2
    23    12    14   am
    24    14    15    1
    25    14    33    1
    26    15    22    1
    27    15    16    2
    28    16    17    1
    29    16    20    1
    30    17    18   am
    31    17    19    2
    32    18    34    1
    33    18    35    1
    34    20    21    2
    35    20    36    1
    36    21    22    1
    37    21    37    1
    38    24    25    2
    39    24    38    1
    40    25    26    1
    41    25    39    1
@<TRIPOS>SUBSTRUCTURE
     1 ZINC000007167963        1 TEMP              0 ****  ****    0 ROOT


##########                                Name:    ZINC000572257265
##########                DOCK_Rotatable_Bonds:                  11
##########                         Heavy_Atoms:                  24
##########                    Molecular_Weight:             393.509
##########                DOCK_Rotatable_Bonds:                  11
##########                       Formal_Charge:          -0.0100002
##########                     HBond_Acceptors:                  11
##########                        HBond_Donors:                   3
##########                         Heavy_Atoms:                  24
##########                          Grid_Score:          -38.302727
##########                     Grid_vdw_energy:          -38.079563
##########                      Grid_es_energy:           -0.223163
##########           Internal_energy_repulsive:           12.219558

@<TRIPOS>MOLECULE
ZINC000572257265
 43 43 1 0 0
SMALL
USER_CHARGES


@<TRIPOS>ATOM
      1 C1         -9.9847   -0.1018   55.1645 C.3     1  ZINC000572257265   -0.1300
      2 S2        -11.5725   -0.7017   54.5246 S.3     1  ZINC000572257265   -0.2200
      3 C3        -11.2356   -2.4484   54.1694 C.3     1  ZINC000572257265   -0.1300
      4 C4        -12.4656   -3.0827   53.5171 C.3     1  ZINC000572257265    0.1500
      5 C5        -12.8576   -2.2772   52.2767 C.3     1  ZINC000572257265   -0.1500
      6 O6        -12.1632   -4.4264   53.1365 O.3     1  ZINC000572257265   -0.5400
      7 C7        -13.6274   -3.0838   54.5127 C.3     1  ZINC000572257265    0.0900
      8 N8        -13.8402   -4.4440   55.0133 N.am    1  ZINC000572257265   -1.1100
      9 S9        -14.0992   -4.7008   56.6288 S.o2    1  ZINC000572257265    2.6900
     10 O10       -15.1788   -3.8553   57.0014 O.2     1  ZINC000572257265   -0.9400
     11 O11       -14.1157   -6.1096   56.8135 O.2     1  ZINC000572257265   -0.9500
     12 C12       -12.6804   -4.1031   57.4857 C.ar    1  ZINC000572257265   -0.6300
     13 C13       -12.6720   -2.8191   57.9976 C.ar    1  ZINC000572257265   -0.0400
     14 C14       -11.5589   -2.3501   58.6699 C.ar    1  ZINC000572257265   -0.0400
     15 C15       -10.4542   -3.1656   58.8307 C.ar    1  ZINC000572257265   -0.6300
     16 S16        -9.0352   -2.5677   59.6871 S.o2    1  ZINC000572257265    2.7000
     17 O17        -8.1401   -3.6660   59.7962 O.2     1  ZINC000572257265   -0.9400
     18 O18        -8.6834   -1.3367   59.0705 O.2     1  ZINC000572257265   -0.9400
     19 N19        -9.5127   -2.1987   61.2292 N.am    1  ZINC000572257265   -1.1200
     20 C20       -10.5544   -1.1932   61.4527 C.3     1  ZINC000572257265    0.2200
     21 C21       -10.3222   -0.5246   62.7434 C.1     1  ZINC000572257265    0.1900
     22 N22       -10.1430   -0.0086   63.7395 N.1     1  ZINC000572257265   -0.3900
     23 C23       -10.4630   -4.4501   58.3200 C.ar    1  ZINC000572257265   -0.0400
     24 C24       -11.5777   -4.9203   57.6510 C.ar    1  ZINC000572257265   -0.0400
     25 H25        -9.2138   -0.2338   54.4053 H       1  ZINC000572257265    0.0800
     26 H26       -10.0702    0.9555   55.4155 H       1  ZINC000572257265    0.1000
     27 H27        -9.7159   -0.6665   56.0572 H       1  ZINC000572257265    0.0800
     28 H28       -10.3853   -2.5239   53.4917 H       1  ZINC000572257265    0.0900
     29 H29       -11.0072   -2.9706   55.0986 H       1  ZINC000572257265    0.0900
     30 H30       -12.0300   -2.2765   51.5675 H       1  ZINC000572257265    0.0800
     31 H31       -13.7340   -2.7292   51.8120 H       1  ZINC000572257265    0.0700
     32 H32       -13.0883   -1.2522   52.5671 H       1  ZINC000572257265    0.0800
     33 H33       -12.8904   -4.8823   52.6910 H       1  ZINC000572257265    0.3800
     34 H34       -13.3921   -2.4224   55.3464 H       1  ZINC000572257265    0.0900
     35 H35       -14.5321   -2.7340   54.0156 H       1  ZINC000572257265    0.0800
     36 H36       -13.8293   -5.1944   54.3987 H       1  ZINC000572257265    0.4300
     37 H37       -13.5350   -2.1820   57.8719 H       1  ZINC000572257265    0.1500
     38 H38       -11.5521   -1.3467   59.0691 H       1  ZINC000572257265    0.1500
     39 H39        -9.1027   -2.6484   61.9846 H       1  ZINC000572257265    0.4300
     40 H40       -10.5252   -0.4554   60.6509 H       1  ZINC000572257265    0.1100
     41 H41       -11.5306   -1.6779   61.4650 H       1  ZINC000572257265    0.1300
     42 H42        -9.6002   -5.0872   58.4460 H       1  ZINC000572257265    0.1600
     43 H43       -11.5846   -5.9239   57.2521 H       1  ZINC000572257265    0.1500
@<TRIPOS>BOND
     1     1     2    1
     2     1    25    1
     3     1    26    1
     4     1    27    1
     5     2     3    1
     6     3     4    1
     7     3    28    1
     8     3    29    1
     9     4     5    1
    10     4     6    1
    11     4     7    1
    12     5    30    1
    13     5    31    1
    14     5    32    1
    15     6    33    1
    16     7     8    1
    17     7    34    1
    18     7    35    1
    19     8     9   am
    20     8    36    1
    21     9    10    2
    22     9    11    2
    23     9    12    1
    24    12    24   ar
    25    12    13   ar
    26    13    14   ar
    27    13    37    1
    28    14    15   ar
    29    14    38    1
    30    15    16    1
    31    15    23   ar
    32    16    17    2
    33    16    18    2
    34    16    19   am
    35    19    20    1
    36    19    39    1
    37    20    21    1
    38    20    40    1
    39    20    41    1
    40    21    22    3
    41    23    24   ar
    42    23    42    1
    43    24    43    1
@<TRIPOS>SUBSTRUCTURE
     1 ZINC000572257265        1 TEMP              0 ****  ****    0 ROOT


##########                                Name:    ZINC000762187039
##########                DOCK_Rotatable_Bonds:                   9
##########                         Heavy_Atoms:                  25
##########                    Molecular_Weight:             354.473
##########                DOCK_Rotatable_Bonds:                   9
##########                       Formal_Charge:        -1.78814e-07
##########                     HBond_Acceptors:                   5
##########                        HBond_Donors:                   1
##########                         Heavy_Atoms:                  25
##########                          Grid_Score:          -38.302406
##########                     Grid_vdw_energy:          -38.372627
##########                      Grid_es_energy:            0.070220
##########           Internal_energy_repulsive:            9.402989

@<TRIPOS>MOLECULE
ZINC000762187039
 47 49 1 0 0
SMALL
USER_CHARGES


@<TRIPOS>ATOM
      1 C1         -6.8966    2.3384   52.4426 C.3     1  ZINC000762187039   -0.0800
      2 C2         -7.5835    1.0047   52.2989 C.2     1  ZINC000762187039    0.0500
      3 N3         -8.7221    0.7002   52.8239 N.2     1  ZINC000762187039   -0.4700
      4 C4         -9.1822   -0.5140   52.5984 C.2     1  ZINC000762187039    0.0700
      5 C5        -10.4970   -1.0028   53.1490 C.3     1  ZINC000762187039   -0.0300
      6 C6        -10.8468   -2.3499   52.5134 C.3     1  ZINC000762187039   -0.1300
      7 C7        -12.0838   -2.9083   53.1685 C.2     1  ZINC000762187039    0.5200
      8 O8        -13.1782   -2.4941   52.8498 O.2     1  ZINC000762187039   -0.5400
      9 N9        -11.9738   -3.8678   54.1085 N.am    1  ZINC000762187039   -0.7300
     10 C10       -13.1762   -4.4095   54.7465 C.3     1  ZINC000762187039    0.1200
     11 C11       -13.3786   -3.7380   56.1063 C.3     1  ZINC000762187039   -0.1300
     12 C12       -12.4306   -4.3646   57.1307 C.3     1  ZINC000762187039    0.0600
     13 O13       -11.1539   -3.7277   57.0502 O.3     1  ZINC000762187039   -0.3100
     14 C14       -10.6360   -3.2356   58.2060 C.ar    1  ZINC000762187039    0.1300
     15 C15        -9.7708   -4.0275   58.9667 C.ar    1  ZINC000762187039   -0.1900
     16 C16        -9.2364   -3.5628   60.1280 C.ar    1  ZINC000762187039   -0.0600
     17 C17        -9.5557   -2.2684   60.5732 C.ar    1  ZINC000762187039   -0.0800
     18 C18        -9.0213   -1.7565   61.7679 C.ar    1  ZINC000762187039   -0.0900
     19 C19        -9.3514   -0.4986   62.1690 C.ar    1  ZINC000762187039   -0.1300
     20 C20       -10.2135    0.2932   61.4123 C.ar    1  ZINC000762187039   -0.1000
     21 C21       -10.7503   -0.1687   60.2502 C.ar    1  ZINC000762187039   -0.1200
     22 C22       -10.4325   -1.4633   59.8033 C.ar    1  ZINC000762187039   -0.0100
     23 C23       -10.9632   -1.9713   58.6068 C.ar    1  ZINC000762187039   -0.1500
     24 C24        -8.3874   -1.2760   51.8409 C.2     1  ZINC000762187039   -0.2600
     25 S25        -6.9703   -0.3212   51.4107 S.3     1  ZINC000762187039    0.1200
     26 H26        -5.9543    2.3227   51.8949 H       1  ZINC000762187039    0.0800
     27 H27        -7.5377    3.1226   52.0400 H       1  ZINC000762187039    0.0900
     28 H28        -6.7008    2.5346   53.4968 H       1  ZINC000762187039    0.0900
     29 H29       -10.4171   -1.1208   54.2296 H       1  ZINC000762187039    0.0900
     30 H30       -11.2788   -0.2788   52.9193 H       1  ZINC000762187039    0.0900
     31 H31       -11.0306   -2.2121   51.4479 H       1  ZINC000762187039    0.0900
     32 H32       -10.0175   -3.0435   52.6524 H       1  ZINC000762187039    0.1000
     33 H33       -11.0985   -4.1999   54.3625 H       1  ZINC000762187039    0.4000
     34 H34       -14.0420   -4.2159   54.1133 H       1  ZINC000762187039    0.0700
     35 H35       -13.0609   -5.4844   54.8857 H       1  ZINC000762187039    0.0700
     36 H36       -13.1674   -2.6721   56.0201 H       1  ZINC000762187039    0.0800
     37 H37       -14.4094   -3.8791   56.4313 H       1  ZINC000762187039    0.0800
     38 H38       -12.8397   -4.2330   58.1324 H       1  ZINC000762187039    0.0700
     39 H39       -12.3199   -5.4283   56.9203 H       1  ZINC000762187039    0.0700
     40 H40        -9.5233   -5.0227   58.6276 H       1  ZINC000762187039    0.1300
     41 H41        -8.5700   -4.1860   60.7058 H       1  ZINC000762187039    0.1300
     42 H42        -8.3521   -2.3583   62.3649 H       1  ZINC000762187039    0.1300
     43 H43        -8.9394   -0.1080   63.0878 H       1  ZINC000762187039    0.1200
     44 H44       -10.4595    1.2879   61.7535 H       1  ZINC000762187039    0.1200
     45 H45       -11.4169    0.4560   59.6742 H       1  ZINC000762187039    0.1300
     46 H46       -11.6293   -1.3672   58.0084 H       1  ZINC000762187039    0.1300
     47 H47        -8.5813   -2.2955   51.5421 H       1  ZINC000762187039    0.1800
@<TRIPOS>BOND
     1     1     2    1
     2     1    26    1
     3     1    27    1
     4     1    28    1
     5     2    25    1
     6     2     3    2
     7     3     4    1
     8     4     5    1
     9     4    24    2
    10     5     6    1
    11     5    29    1
    12     5    30    1
    13     6     7    1
    14     6    31    1
    15     6    32    1
    16     7     8    2
    17     7     9   am
    18     9    10    1
    19     9    33    1
    20    10    11    1
    21    10    34    1
    22    10    35    1
    23    11    12    1
    24    11    36    1
    25    11    37    1
    26    12    13    1
    27    12    38    1
    28    12    39    1
    29    13    14    1
    30    14    23   ar
    31    14    15   ar
    32    15    16   ar
    33    15    40    1
    34    16    17   ar
    35    16    41    1
    36    17    22   ar
    37    17    18   ar
    38    18    19   ar
    39    18    42    1
    40    19    20   ar
    41    19    43    1
    42    20    21   ar
    43    20    44    1
    44    21    22   ar
    45    21    45    1
    46    22    23   ar
    47    23    46    1
    48    24    25    1
    49    24    47    1
@<TRIPOS>SUBSTRUCTURE
     1 ZINC000762187039        1 TEMP              0 ****  ****    0 ROOT


##########                                Name:    ZINC001191196975
##########                DOCK_Rotatable_Bonds:                  14
##########                         Heavy_Atoms:                  24
##########                    Molecular_Weight:             339.438
##########                DOCK_Rotatable_Bonds:                  14
##########                       Formal_Charge:          0.00999969
##########                     HBond_Acceptors:                   8
##########                        HBond_Donors:                   4
##########                         Heavy_Atoms:                  24
##########                          Grid_Score:          -38.292137
##########                     Grid_vdw_energy:          -35.221256
##########                      Grid_es_energy:           -3.070879
##########           Internal_energy_repulsive:           14.412578

@<TRIPOS>MOLECULE
ZINC001191196975
 53 53 1 0 0
SMALL
USER_CHARGES


@<TRIPOS>ATOM
      1 C1         -6.5768    2.2671   57.2106 C.2     1  ZINC001191196975   -0.1600
      2 C2         -7.8256    2.2049   56.8200 C.2     1  ZINC001191196975   -0.1800
      3 C3         -8.8468    3.1443   57.4081 C.3     1  ZINC001191196975    0.1500
      4 N4         -9.4581    2.5254   58.5869 N.am    1  ZINC001191196975   -0.7300
      5 C5        -10.5671    1.7714   58.4532 C.2     1  ZINC001191196975    0.5100
      6 O6        -11.0582    1.6040   57.3571 O.2     1  ZINC001191196975   -0.5200
      7 C7        -11.1970    1.1362   59.6661 C.3     1  ZINC001191196975    0.0300
      8 N8        -10.1663    0.4325   60.4412 N.3     1  ZINC001191196975   -0.5100
      9 C9        -10.0940    0.9512   61.8137 C.3     1  ZINC001191196975    0.0200
     10 C10       -10.4035   -1.0173   60.4381 C.3     1  ZINC001191196975    0.0700
     11 H11       -11.3590   -1.2557   60.9051 H       1  ZINC001191196975    0.0600
     12 C12        -9.2404   -1.7725   61.1340 C.3     1  ZINC001191196975   -0.1200
     13 C13        -9.2838   -3.1636   60.4673 C.3     1  ZINC001191196975    0.1000
     14 N14        -9.9699   -3.0078   59.1764 N.am    1  ZINC001191196975   -0.6200
     15 C15       -10.2282   -3.9982   58.2995 C.2     1  ZINC001191196975    0.5300
     16 O16        -9.8866   -5.1346   58.5503 O.2     1  ZINC001191196975   -0.5400
     17 C17       -10.9415   -3.6936   57.0075 C.3     1  ZINC001191196975   -0.1300
     18 C18       -12.3957   -4.1591   57.1057 C.3     1  ZINC001191196975   -0.1000
     19 C19       -13.2630   -3.3251   56.1607 C.3     1  ZINC001191196975   -0.1300
     20 C20       -13.1745   -3.9005   54.7458 C.3     1  ZINC001191196975    0.1400
     21 N21       -12.2360   -3.1032   53.9521 N.am    1  ZINC001191196975   -0.7500
     22 C22       -11.5191   -3.6858   52.9707 C.2     1  ZINC001191196975    0.7000
     23 N23       -10.6570   -2.9519   52.2396 N.am    1  ZINC001191196975   -0.8700
     24 O24       -11.6501   -4.8733   52.7451 O.2     1  ZINC001191196975   -0.5900
     25 C25       -10.3304   -1.5887   59.0001 C.3     1  ZINC001191196975    0.1100
     26 H26        -6.2791    2.9916   57.9543 H       1  ZINC001191196975    0.1000
     27 H27        -5.8459    1.5909   56.7924 H       1  ZINC001191196975    0.1000
     28 H28        -8.1235    1.4805   56.0764 H       1  ZINC001191196975    0.1200
     29 H29        -8.3596    4.0753   57.6980 H       1  ZINC001191196975    0.0800
     30 H30        -9.6177    3.3534   56.6664 H       1  ZINC001191196975    0.0700
     31 H31        -9.0647    2.6584   59.4634 H       1  ZINC001191196975    0.4000
     32 H32       -11.6531    1.9086   60.2853 H       1  ZINC001191196975    0.0700
     33 H33       -11.9610    0.4264   59.3491 H       1  ZINC001191196975    0.1100
     34 H34       -11.0838    0.9139   62.2688 H       1  ZINC001191196975    0.0200
     35 H35        -9.4030    0.3421   62.3963 H       1  ZINC001191196975    0.0700
     36 H36        -9.7416    1.9825   61.7943 H       1  ZINC001191196975    0.0900
     37 H37        -8.2882   -1.2799   60.9370 H       1  ZINC001191196975    0.0900
     38 H38        -9.4196   -1.8529   62.2062 H       1  ZINC001191196975    0.0800
     39 H39        -8.2697   -3.5294   60.3064 H       1  ZINC001191196975    0.0700
     40 H40        -9.8355   -3.8602   61.0986 H       1  ZINC001191196975    0.0700
     41 H41       -10.9154   -2.6197   56.8226 H       1  ZINC001191196975    0.0900
     42 H42       -10.4475   -4.2155   56.1880 H       1  ZINC001191196975    0.0900
     43 H43       -12.4603   -5.2104   56.8254 H       1  ZINC001191196975    0.0800
     44 H44       -12.7491   -4.0335   58.1291 H       1  ZINC001191196975    0.0800
     45 H45       -14.2987   -3.3517   56.4996 H       1  ZINC001191196975    0.0700
     46 H46       -12.9084   -2.2944   56.1566 H       1  ZINC001191196975    0.0700
     47 H47       -12.8247   -4.9317   54.7942 H       1  ZINC001191196975    0.0700
     48 H48       -14.1595   -3.8724   54.2799 H       1  ZINC001191196975    0.0700
     49 H49       -12.1307   -2.1560   54.1330 H       1  ZINC001191196975    0.4000
     50 H50       -10.1418   -3.3709   51.5324 H       1  ZINC001191196975    0.4000
     51 H51       -10.5516   -2.0048   52.4205 H       1  ZINC001191196975    0.4200
     52 H52       -11.2983   -1.5016   58.5065 H       1  ZINC001191196975    0.0800
     53 H53        -9.5626   -1.0708   58.4254 H       1  ZINC001191196975    0.0800
@<TRIPOS>BOND
     1     1     2    2
     2     1    26    1
     3     1    27    1
     4     2     3    1
     5     2    28    1
     6     3     4    1
     7     3    29    1
     8     3    30    1
     9     4     5   am
    10     4    31    1
    11     5     6    2
    12     5     7    1
    13     7     8    1
    14     7    32    1
    15     7    33    1
    16     8     9    1
    17     8    10    1
    18     9    34    1
    19     9    35    1
    20     9    36    1
    21    10    11    1
    22    10    25    1
    23    10    12    1
    24    12    13    1
    25    12    37    1
    26    12    38    1
    27    13    14    1
    28    13    39    1
    29    13    40    1
    30    14    15   am
    31    14    25    1
    32    15    16    2
    33    15    17    1
    34    17    18    1
    35    17    41    1
    36    17    42    1
    37    18    19    1
    38    18    43    1
    39    18    44    1
    40    19    20    1
    41    19    45    1
    42    19    46    1
    43    20    21    1
    44    20    47    1
    45    20    48    1
    46    21    22   am
    47    21    49    1
    48    22    23   am
    49    22    24    2
    50    23    50    1
    51    23    51    1
    52    25    52    1
    53    25    53    1
@<TRIPOS>SUBSTRUCTURE
     1 ZINC001191196975        1 TEMP              0 ****  ****    0 ROOT


##########                                Name:    ZINC000051488227
##########                DOCK_Rotatable_Bonds:                   8
##########                         Heavy_Atoms:                  30
##########                    Molecular_Weight:             403.478
##########                DOCK_Rotatable_Bonds:                   8
##########                       Formal_Charge:           0.0199996
##########                     HBond_Acceptors:                   5
##########                        HBond_Donors:                   0
##########                         Heavy_Atoms:                  30
##########                          Grid_Score:          -38.254715
##########                     Grid_vdw_energy:          -38.584583
##########                      Grid_es_energy:            0.329869
##########           Internal_energy_repulsive:           22.695082

@<TRIPOS>MOLECULE
ZINC000051488227
 55 58 1 0 0
SMALL
USER_CHARGES


@<TRIPOS>ATOM
      1 O1        -12.5588   -0.4287   55.2947 O.2     1  ZINC000051488227   -0.5000
      2 C2        -11.6852   -1.2627   55.2557 C.2     1  ZINC000051488227    0.4800
      3 O3        -10.6422   -1.1038   54.4259 O.3     1  ZINC000051488227   -0.3400
      4 C4        -10.6424    0.0808   53.5862 C.3     1  ZINC000051488227    0.1100
      5 C5         -9.3001    0.2215   52.9158 C.ar    1  ZINC000051488227   -0.1400
      6 C6         -8.7958   -0.8178   52.1560 C.ar    1  ZINC000051488227   -0.0500
      7 C7         -7.5656   -0.6913   51.5405 C.ar    1  ZINC000051488227   -0.1500
      8 C8         -6.8362    0.4800   51.6847 C.ar    1  ZINC000051488227    0.1500
      9 O9         -5.6259    0.6070   51.0798 O.3     1  ZINC000051488227   -0.3100
     10 C10        -4.8781    1.7903   51.3671 C.3     1  ZINC000051488227    0.1100
     11 C11        -3.5713    1.7531   50.6173 C.ar    1  ZINC000051488227    0.1200
     12 C12        -2.4812    2.4444   51.1103 C.ar    1  ZINC000051488227   -0.1500
     13 C13        -1.2833    2.4033   50.4130 C.ar    1  ZINC000051488227   -0.0700
     14 C14        -1.2270    1.6650   49.2410 C.ar    1  ZINC000051488227   -0.1700
     15 C15        -2.3590    0.9992   48.8095 C.ar    1  ZINC000051488227    0.1100
     16 N16        -3.4800    1.0566   49.5012 N.ar    1  ZINC000051488227   -0.4800
     17 C17        -7.3447    1.5215   52.4472 C.ar    1  ZINC000051488227   -0.2100
     18 C18        -8.5775    1.3918   53.0568 C.ar    1  ZINC000051488227   -0.0500
     19 C19       -11.7637   -2.4781   56.1432 C.3     1  ZINC000051488227    0.0000
     20 C20       -10.8483   -2.2979   57.3267 C.ar    1  ZINC000051488227   -0.0900
     21 C21       -10.2058   -1.0903   57.5260 C.ar    1  ZINC000051488227   -0.1100
     22 C22        -9.3661   -0.9250   58.6116 C.ar    1  ZINC000051488227   -0.1200
     23 C23        -9.1692   -1.9672   59.4981 C.ar    1  ZINC000051488227   -0.1100
     24 C24        -9.8124   -3.1745   59.2992 C.ar    1  ZINC000051488227   -0.1200
     25 C25       -10.6555   -3.3385   58.2161 C.ar    1  ZINC000051488227   -0.1000
     26 C26       -13.2038   -2.6644   56.6308 C.3     1  ZINC000051488227   -0.1400
     27 C27       -14.1126   -2.9238   55.4264 C.3     1  ZINC000051488227    0.0600
     28 O28       -13.6446   -4.0725   54.7169 O.3     1  ZINC000051488227   -0.3800
     29 C29       -12.3205   -3.9375   54.1966 C.3     1  ZINC000051488227    0.0500
     30 C30       -11.3397   -3.7190   55.3517 C.3     1  ZINC000051488227   -0.1400
     31 H31       -11.4196   -0.0116   52.8276 H       1  ZINC000051488227    0.0800
     32 H32       -10.8362    0.9609   54.1995 H       1  ZINC000051488227    0.0800
     33 H33        -9.3640   -1.7294   52.0440 H       1  ZINC000051488227    0.1300
     34 H34        -7.1718   -1.5036   50.9477 H       1  ZINC000051488227    0.1400
     35 H35        -5.4496    2.6654   51.0579 H       1  ZINC000051488227    0.0900
     36 H36        -4.6812    1.8446   52.4378 H       1  ZINC000051488227    0.0900
     37 H37        -2.5612    3.0099   52.0269 H       1  ZINC000051488227    0.1400
     38 H38        -0.4148    2.9340   50.7743 H       1  ZINC000051488227    0.1400
     39 H39        -0.3106    1.6111   48.6721 H       1  ZINC000051488227    0.1400
     40 H40        -2.3235    0.4222   47.8972 H       1  ZINC000051488227    0.1600
     41 H41        -6.7786    2.4341   52.5613 H       1  ZINC000051488227    0.1300
     42 H42        -8.9740    2.2025   53.6502 H       1  ZINC000051488227    0.1300
     43 H43       -10.3597   -0.2760   56.8334 H       1  ZINC000051488227    0.1300
     44 H44        -8.8636    0.0182   58.7669 H       1  ZINC000051488227    0.1300
     45 H45        -8.5126   -1.8383   60.3459 H       1  ZINC000051488227    0.1200
     46 H46        -9.6583   -3.9889   59.9918 H       1  ZINC000051488227    0.1200
     47 H47       -11.1579   -4.2817   58.0608 H       1  ZINC000051488227    0.1300
     48 H48       -13.2507   -3.5140   57.3121 H       1  ZINC000051488227    0.0900
     49 H49       -13.5328   -1.7630   57.1480 H       1  ZINC000051488227    0.0900
     50 H50       -15.1315   -3.0996   55.7710 H       1  ZINC000051488227    0.1000
     51 H51       -14.0966   -2.0569   54.7657 H       1  ZINC000051488227    0.0500
     52 H52       -12.0485   -4.8437   53.6554 H       1  ZINC000051488227    0.1000
     53 H53       -12.2810   -3.0841   53.5198 H       1  ZINC000051488227    0.0700
     54 H54       -10.3356   -3.5718   54.9540 H       1  ZINC000051488227    0.0900
     55 H55       -11.3490   -4.5898   56.0071 H       1  ZINC000051488227    0.0900
@<TRIPOS>BOND
     1     1     2    2
     2     2     3    1
     3     2    19    1
     4     3     4    1
     5     4     5    1
     6     4    31    1
     7     4    32    1
     8     5    18   ar
     9     5     6   ar
    10     6     7   ar
    11     6    33    1
    12     7     8   ar
    13     7    34    1
    14     8     9    1
    15     8    17   ar
    16     9    10    1
    17    10    11    1
    18    10    35    1
    19    10    36    1
    20    11    16   ar
    21    11    12   ar
    22    12    13   ar
    23    12    37    1
    24    13    14   ar
    25    13    38    1
    26    14    15   ar
    27    14    39    1
    28    15    16   ar
    29    15    40    1
    30    17    18   ar
    31    17    41    1
    32    18    42    1
    33    19    30    1
    34    19    20    1
    35    19    26    1
    36    20    25   ar
    37    20    21   ar
    38    21    22   ar
    39    21    43    1
    40    22    23   ar
    41    22    44    1
    42    23    24   ar
    43    23    45    1
    44    24    25   ar
    45    24    46    1
    46    25    47    1
    47    26    27    1
    48    26    48    1
    49    26    49    1
    50    27    28    1
    51    27    50    1
    52    27    51    1
    53    28    29    1
    54    29    30    1
    55    29    52    1
    56    29    53    1
    57    30    54    1
    58    30    55    1
@<TRIPOS>SUBSTRUCTURE
     1 ZINC000051488227        1 TEMP              0 ****  ****    0 ROOT


##########                                Name:    ZINC000671418508
##########                DOCK_Rotatable_Bonds:                   9
##########                         Heavy_Atoms:                  28
##########                    Molecular_Weight:             405.884
##########                DOCK_Rotatable_Bonds:                   9
##########                       Formal_Charge:         -1.3411e-07
##########                     HBond_Acceptors:                   9
##########                        HBond_Donors:                   2
##########                         Heavy_Atoms:                  28
##########                          Grid_Score:          -38.132004
##########                     Grid_vdw_energy:          -37.498394
##########                      Grid_es_energy:           -0.633611
##########           Internal_energy_repulsive:           17.735966

@<TRIPOS>MOLECULE
ZINC000671418508
 52 54 1 0 0
SMALL
USER_CHARGES


@<TRIPOS>ATOM
      1 C1        -10.6129    5.0718   50.8029 C.3     1  ZINC000671418508    0.1000
      2 N2         -9.6894    4.1084   51.4075 N.pl3   1  ZINC000671418508   -0.3700
      3 C3         -9.8487    2.7688   51.4399 C.2     1  ZINC000671418508    0.0800
      4 C4         -8.7821    2.2422   52.0851 C.2     1  ZINC000671418508   -0.2700
      5 C5         -8.5413    0.7786   52.3520 C.3     1  ZINC000671418508    0.2000
      6 N6         -9.8268    0.0891   52.4879 N.am    1  ZINC000671418508   -0.6900
      7 C7         -9.9247   -1.2201   52.1830 C.2     1  ZINC000671418508    0.5100
      8 O8         -8.9485   -1.8273   51.7947 O.2     1  ZINC000671418508   -0.5100
      9 C9        -11.2356   -1.9239   52.3234 C.2     1  ZINC000671418508    0.5100
     10 O10       -11.8109   -2.3373   51.3381 O.2     1  ZINC000671418508   -0.5200
     11 N11       -11.7788   -2.0996   53.5443 N.am    1  ZINC000671418508   -0.5800
     12 C12       -13.0649   -2.7948   53.7054 C.3     1  ZINC000671418508    0.0800
     13 C13       -12.8960   -3.8923   54.7613 C.3     1  ZINC000671418508    0.0400
     14 N14       -12.3497   -3.3039   55.9915 N.3     1  ZINC000671418508   -0.5200
     15 C15       -12.3333   -4.2868   57.0830 C.3     1  ZINC000671418508    0.1300
     16 H16       -11.9061   -5.2227   56.7228 H       1  ZINC000671418508    0.0600
     17 C17       -13.7630   -4.5328   57.5693 C.3     1  ZINC000671418508    0.0900
     18 O18       -14.1945   -5.8272   57.1448 O.3     1  ZINC000671418508   -0.5500
     19 C19       -11.4991   -3.7591   58.2217 C.ar    1  ZINC000671418508   -0.0800
     20 C20       -11.9400   -2.6741   58.9561 C.ar    1  ZINC000671418508   -0.0600
     21 C21       -11.1753   -2.1896   60.0007 C.ar    1  ZINC000671418508   -0.1200
     22 C22        -9.9685   -2.7908   60.3111 C.ar    1  ZINC000671418508   -0.0300
     23 Cl23       -9.0078   -2.1833   61.6231 Cl      1  ZINC000671418508   -0.0700
     24 C24        -9.5278   -3.8767   59.5757 C.ar    1  ZINC000671418508   -0.1200
     25 C25       -10.2961   -4.3638   58.5351 C.ar    1  ZINC000671418508   -0.1100
     26 C26       -11.0098   -2.7456   55.7656 C.3     1  ZINC000671418508    0.0400
     27 C27       -11.0984   -1.6065   54.7514 C.3     1  ZINC000671418508    0.1100
     28 C28        -7.9424    3.2960   52.4598 C.2     1  ZINC000671418508    0.0700
     29 N29        -8.4823    4.4148   52.0488 N.2     1  ZINC000671418508   -0.2900
     30 H30       -10.3444    5.2257   49.7577 H       1  ZINC000671418508    0.0800
     31 H31       -11.6308    4.6866   50.8636 H       1  ZINC000671418508    0.0900
     32 H32       -10.5505    6.0196   51.3374 H       1  ZINC000671418508    0.0900
     33 H33       -10.6788    2.2160   51.0256 H       1  ZINC000671418508    0.1800
     34 H34        -7.9824    0.3453   51.5226 H       1  ZINC000671418508    0.0800
     35 H35        -7.9697    0.6666   53.2733 H       1  ZINC000671418508    0.0800
     36 H36       -10.6074    0.5747   52.7972 H       1  ZINC000671418508    0.4100
     37 H37       -13.8258   -2.0861   54.0323 H       1  ZINC000671418508    0.0800
     38 H38       -13.3607   -3.2421   52.7564 H       1  ZINC000671418508    0.1400
     39 H39       -13.8646   -4.3448   54.9736 H       1  ZINC000671418508    0.0900
     40 H40       -12.2121   -4.6544   54.3877 H       1  ZINC000671418508    0.0400
     41 H41       -13.7907   -4.4793   58.6577 H       1  ZINC000671418508    0.0500
     42 H42       -14.4246   -3.7740   57.1513 H       1  ZINC000671418508    0.0500
     43 H43       -13.8513   -6.0923   56.2805 H       1  ZINC000671418508    0.3800
     44 H44       -12.8818   -2.2046   58.7136 H       1  ZINC000671418508    0.1400
     45 H45       -11.5196   -1.3417   60.5741 H       1  ZINC000671418508    0.1300
     46 H46        -8.5858   -4.3462   59.8174 H       1  ZINC000671418508    0.1300
     47 H47        -9.9524   -5.2117   57.9612 H       1  ZINC000671418508    0.1300
     48 H48       -10.6104   -2.3666   56.7064 H       1  ZINC000671418508    0.0900
     49 H49       -10.3522   -3.5236   55.3780 H       1  ZINC000671418508    0.0400
     50 H50       -10.0953   -1.2657   54.4948 H       1  ZINC000671418508    0.1000
     51 H51       -11.6708   -0.7817   55.1760 H       1  ZINC000671418508    0.0800
     52 H52        -7.0073    3.2022   52.9919 H       1  ZINC000671418508    0.1900
@<TRIPOS>BOND
     1     1     2    1
     2     1    30    1
     3     1    31    1
     4     1    32    1
     5     2    29    1
     6     2     3    1
     7     3     4    2
     8     3    33    1
     9     4     5    1
    10     4    28    1
    11     5     6    1
    12     5    34    1
    13     5    35    1
    14     6     7   am
    15     6    36    1
    16     7     8    2
    17     7     9    1
    18     9    10    2
    19     9    11   am
    20    11    27    1
    21    11    12    1
    22    12    13    1
    23    12    37    1
    24    12    38    1
    25    13    14    1
    26    13    39    1
    27    13    40    1
    28    14    15    1
    29    14    26    1
    30    15    16    1
    31    15    17    1
    32    15    19    1
    33    17    18    1
    34    17    41    1
    35    17    42    1
    36    18    43    1
    37    19    25   ar
    38    19    20   ar
    39    20    21   ar
    40    20    44    1
    41    21    22   ar
    42    21    45    1
    43    22    23    1
    44    22    24   ar
    45    24    25   ar
    46    24    46    1
    47    25    47    1
    48    26    27    1
    49    26    48    1
    50    26    49    1
    51    27    50    1
    52    27    51    1
    53    28    29    2
    54    28    52    1
@<TRIPOS>SUBSTRUCTURE
     1 ZINC000671418508        1 TEMP              0 ****  ****    0 ROOT


##########                                Name:    ZINC000432253027
##########                DOCK_Rotatable_Bonds:                   8
##########                         Heavy_Atoms:                  26
##########                    Molecular_Weight:             401.436
##########                DOCK_Rotatable_Bonds:                   8
##########                       Formal_Charge:         1.19209e-07
##########                     HBond_Acceptors:                  11
##########                        HBond_Donors:                   0
##########                         Heavy_Atoms:                  26
##########                          Grid_Score:          -38.093979
##########                     Grid_vdw_energy:          -36.989819
##########                      Grid_es_energy:           -1.104162
##########           Internal_energy_repulsive:            5.956430

@<TRIPOS>MOLECULE
ZINC000432253027
 40 42 1 0 0
SMALL
USER_CHARGES


@<TRIPOS>ATOM
      1 C1        -11.0154    0.1377   57.4448 C.3     1  ZINC000432253027    0.0300
      2 O2        -11.6025   -1.0689   57.9364 O.3     1  ZINC000432253027   -0.3100
      3 C3        -10.7702   -1.9615   58.5322 C.ar    1  ZINC000432253027    0.1500
      4 C4         -9.9423   -1.5570   59.5665 C.ar    1  ZINC000432253027   -0.2100
      5 C5         -9.0951   -2.4663   60.1719 C.ar    1  ZINC000432253027   -0.0600
      6 C6         -9.0678   -3.7842   59.7508 C.ar    1  ZINC000432253027   -0.1600
      7 C7         -9.8863   -4.2027   58.7219 C.ar    1  ZINC000432253027   -0.0300
      8 C8        -10.7496   -3.2958   58.1071 C.ar    1  ZINC000432253027   -0.0600
      9 C9        -11.6288   -3.7376   57.0046 C.2     1  ZINC000432253027    0.1200
     10 N10       -11.4624   -3.4524   55.7446 N.2     1  ZINC000432253027   -0.4600
     11 C11       -12.3472   -3.9346   54.9017 C.2     1  ZINC000432253027    0.0800
     12 C12       -12.2643   -3.6760   53.4194 C.3     1  ZINC000432253027   -0.0200
     13 S13       -10.5493   -3.2960   52.9668 S.3     1  ZINC000432253027   -0.1700
     14 C14       -10.5312   -1.4827   52.9217 C.3     1  ZINC000432253027   -0.0300
     15 C15        -9.2015   -1.0065   52.3962 C.2     1  ZINC000432253027    0.2100
     16 N16        -8.3953   -1.6624   51.5976 N.2     1  ZINC000432253027   -0.2700
     17 N17        -7.3639   -0.9222   51.3779 N.2     1  ZINC000432253027   -0.0500
     18 N18        -7.4912    0.1888   52.0155 N.2     1  ZINC000432253027   -0.0700
     19 N19        -8.6140    0.1773   52.6512 N.pl3   1  ZINC000432253027   -0.3100
     20 C20        -9.1450    1.2476   53.4988 C.3     1  ZINC000432253027    0.0700
     21 C21        -9.8413    2.2925   52.6246 C.3     1  ZINC000432253027    0.4300
     22 F22        -8.9160    2.8462   51.7333 F       1  ZINC000432253027   -0.1500
     23 F23       -10.8754    1.6842   51.9050 F       1  ZINC000432253027   -0.1700
     24 F24       -10.3691    3.3026   53.4361 F       1  ZINC000432253027   -0.1700
     25 C25       -13.3254   -4.6693   55.4404 C.2     1  ZINC000432253027   -0.2500
     26 S26       -13.0659   -4.7409   57.1822 S.3     1  ZINC000432253027    0.1600
     27 H27       -11.7881    0.7605   56.9940 H       1  ZINC000432253027    0.1000
     28 H28       -10.5493    0.6772   58.2694 H       1  ZINC000432253027    0.0600
     29 H29       -10.2609   -0.1040   56.6962 H       1  ZINC000432253027    0.0600
     30 H30        -9.9585   -0.5300   59.9000 H       1  ZINC000432253027    0.1400
     31 H31        -8.4508   -2.1463   60.9774 H       1  ZINC000432253027    0.1300
     32 H32        -8.4029   -4.4880   60.2293 H       1  ZINC000432253027    0.1300
     33 H33        -9.8618   -5.2321   58.3959 H       1  ZINC000432253027    0.1400
     34 H34       -12.5956   -4.5616   52.8770 H       1  ZINC000432253027    0.1000
     35 H35       -12.9037   -2.8318   53.1615 H       1  ZINC000432253027    0.1100
     36 H36       -11.3283   -1.1275   52.2687 H       1  ZINC000432253027    0.1100
     37 H37       -10.6850   -1.0927   53.9279 H       1  ZINC000432253027    0.1300
     38 H38        -9.8616    0.8296   54.2058 H       1  ZINC000432253027    0.1500
     39 H39        -8.3274    1.7177   54.0453 H       1  ZINC000432253027    0.1600
     40 H40       -14.1333   -5.1408   54.9007 H       1  ZINC000432253027    0.1800
@<TRIPOS>BOND
     1     1     2    1
     2     1    27    1
     3     1    28    1
     4     1    29    1
     5     2     3    1
     6     3     8   ar
     7     3     4   ar
     8     4     5   ar
     9     4    30    1
    10     5     6   ar
    11     5    31    1
    12     6     7   ar
    13     6    32    1
    14     7     8   ar
    15     7    33    1
    16     8     9    1
    17     9    26    1
    18     9    10    2
    19    10    11    1
    20    11    12    1
    21    11    25    2
    22    12    13    1
    23    12    34    1
    24    12    35    1
    25    13    14    1
    26    14    15    1
    27    14    36    1
    28    14    37    1
    29    15    19    1
    30    15    16    2
    31    16    17    1
    32    17    18    2
    33    18    19    1
    34    19    20    1
    35    20    21    1
    36    20    38    1
    37    20    39    1
    38    21    22    1
    39    21    23    1
    40    21    24    1
    41    25    26    1
    42    25    40    1
@<TRIPOS>SUBSTRUCTURE
     1 ZINC000432253027        1 TEMP              0 ****  ****    0 ROOT


##########                                Name:    ZINC001461256440
##########                DOCK_Rotatable_Bonds:                  13
##########                         Heavy_Atoms:                  26
##########                    Molecular_Weight:             367.445
##########                DOCK_Rotatable_Bonds:                  13
##########                       Formal_Charge:        -6.37025e-07
##########                     HBond_Acceptors:                   8
##########                        HBond_Donors:                   1
##########                         Heavy_Atoms:                  26
##########                          Grid_Score:          -38.088524
##########                     Grid_vdw_energy:          -37.260460
##########                      Grid_es_energy:           -0.828063
##########           Internal_energy_repulsive:           16.764900

@<TRIPOS>MOLECULE
ZINC001461256440
 55 55 1 0 0
SMALL
USER_CHARGES


@<TRIPOS>ATOM
      1 C1         -7.9328    1.8643   57.3529 C.3     1  ZINC001461256440   -0.1500
      2 C2         -8.6356    0.5265   57.1130 C.3     1  ZINC001461256440    0.0600
      3 O3         -8.6077   -0.2605   58.3329 O.3     1  ZINC001461256440   -0.3600
      4 C4         -9.4393   -1.3120   58.3989 C.2     1  ZINC001461256440    0.4400
      5 O5        -10.1770   -1.5577   57.4741 O.2     1  ZINC001461256440   -0.4800
      6 C6         -9.4530   -2.1860   59.6265 C.3     1  ZINC001461256440    0.1400
      7 N7         -9.8174   -1.3811   60.7950 N.pl3   1  ZINC001461256440   -0.3800
      8 N8         -8.9853   -1.0807   61.8810 N.2     1  ZINC001461256440   -0.2800
      9 C9         -9.6592   -0.3418   62.7249 C.2     1  ZINC001461256440    0.1000
     10 C10        -9.1396    0.2040   64.0299 C.3     1  ZINC001461256440   -0.0700
     11 C11       -10.9428   -0.1446   62.2085 C.2     1  ZINC001461256440   -0.2700
     12 C12       -11.0151   -0.7915   61.0133 C.2     1  ZINC001461256440    0.3100
     13 N13       -12.1252   -0.8441   60.1705 N.am    1  ZINC001461256440   -0.6500
     14 C14       -13.1780   -1.6224   60.4905 C.2     1  ZINC001461256440    0.5200
     15 O15       -13.1605   -2.2761   61.5120 O.2     1  ZINC001461256440   -0.5000
     16 C16       -14.3766   -1.6806   59.5791 C.3     1  ZINC001461256440   -0.1300
     17 C17       -14.5556   -3.1095   59.0624 C.3     1  ZINC001461256440   -0.1100
     18 C18       -13.6707   -3.3218   57.8325 C.3     1  ZINC001461256440   -0.1100
     19 C19       -13.9512   -4.7019   57.2344 C.3     1  ZINC001461256440   -0.1200
     20 C20       -13.1805   -4.8583   55.9489 C.2     1  ZINC001461256440    0.4600
     21 O21       -13.3950   -5.8031   55.2270 O.2     1  ZINC001461256440   -0.5000
     22 O22       -12.2557   -3.9478   55.6058 O.3     1  ZINC001461256440   -0.3500
     23 C23       -12.4448   -3.2606   54.3408 C.3     1  ZINC001461256440    0.1200
     24 C24       -11.8254   -4.0887   53.2131 C.3     1  ZINC001461256440   -0.1800
     25 C25       -13.9409   -3.0790   54.0776 C.3     1  ZINC001461256440   -0.1400
     26 C26       -11.7670   -1.8901   54.3986 C.3     1  ZINC001461256440   -0.1800
     27 H27        -7.9537    2.4550   56.4371 H       1  ZINC001461256440    0.0800
     28 H28        -8.4457    2.4067   58.1470 H       1  ZINC001461256440    0.0700
     29 H29        -6.8984    1.6840   57.6455 H       1  ZINC001461256440    0.0700
     30 H30        -9.6700    0.7068   56.8204 H       1  ZINC001461256440    0.0700
     31 H31        -8.1226   -0.0160   56.3188 H       1  ZINC001461256440    0.0700
     32 H32       -10.1815   -2.9860   59.4948 H       1  ZINC001461256440    0.1300
     33 H33        -8.4632   -2.6170   59.7766 H       1  ZINC001461256440    0.1400
     34 H34        -8.6900    1.1826   63.8612 H       1  ZINC001461256440    0.0800
     35 H35        -9.9632    0.2996   64.7374 H       1  ZINC001461256440    0.0800
     36 H36        -8.3896   -0.4754   64.4351 H       1  ZINC001461256440    0.0700
     37 H37       -11.7352    0.4231   62.6736 H       1  ZINC001461256440    0.1800
     38 H38       -12.1396   -0.3204   59.3542 H       1  ZINC001461256440    0.4100
     39 H39       -15.2673   -1.3793   60.1305 H       1  ZINC001461256440    0.1000
     40 H40       -14.2255   -1.0058   58.7365 H       1  ZINC001461256440    0.1000
     41 H41       -14.2702   -3.8161   59.8418 H       1  ZINC001461256440    0.0800
     42 H42       -15.5991   -3.2698   58.7913 H       1  ZINC001461256440    0.0800
     43 H43       -13.8888   -2.5533   57.0910 H       1  ZINC001461256440    0.0700
     44 H44       -12.6223   -3.2584   58.1239 H       1  ZINC001461256440    0.0700
     45 H45       -13.6418   -5.4732   57.9397 H       1  ZINC001461256440    0.1100
     46 H46       -15.0178   -4.8005   57.0329 H       1  ZINC001461256440    0.1100
     47 H47       -12.3082   -5.0650   53.1719 H       1  ZINC001461256440    0.0600
     48 H48       -11.9673   -3.5728   52.2634 H       1  ZINC001461256440    0.0700
     49 H49       -10.7595   -4.2181   53.4005 H       1  ZINC001461256440    0.0800
     50 H50       -14.3822   -2.4891   54.8810 H       1  ZINC001461256440    0.0700
     51 H51       -14.0828   -2.5631   53.1280 H       1  ZINC001461256440    0.0800
     52 H52       -14.4237   -4.0554   54.0364 H       1  ZINC001461256440    0.0700
     53 H53       -10.7011   -2.0196   54.5861 H       1  ZINC001461256440    0.0800
     54 H54       -11.9089   -1.3743   53.4490 H       1  ZINC001461256440    0.0700
     55 H55       -12.2082   -1.3002   55.2019 H       1  ZINC001461256440    0.0600
@<TRIPOS>BOND
     1     1     2    1
     2     1    27    1
     3     1    28    1
     4     1    29    1
     5     2     3    1
     6     2    30    1
     7     2    31    1
     8     3     4    1
     9     4     5    2
    10     4     6    1
    11     6     7    1
    12     6    32    1
    13     6    33    1
    14     7    12    1
    15     7     8    1
    16     8     9    2
    17     9    10    1
    18     9    11    1
    19    10    34    1
    20    10    35    1
    21    10    36    1
    22    11    12    2
    23    11    37    1
    24    12    13    1
    25    13    14   am
    26    13    38    1
    27    14    15    2
    28    14    16    1
    29    16    17    1
    30    16    39    1
    31    16    40    1
    32    17    18    1
    33    17    41    1
    34    17    42    1
    35    18    19    1
    36    18    43    1
    37    18    44    1
    38    19    20    1
    39    19    45    1
    40    19    46    1
    41    20    21    2
    42    20    22    1
    43    22    23    1
    44    23    24    1
    45    23    25    1
    46    23    26    1
    47    24    47    1
    48    24    48    1
    49    24    49    1
    50    25    50    1
    51    25    51    1
    52    25    52    1
    53    26    53    1
    54    26    54    1
    55    26    55    1
@<TRIPOS>SUBSTRUCTURE
     1 ZINC001461256440        1 TEMP              0 ****  ****    0 ROOT


##########                                Name:    ZINC000509132103
##########                DOCK_Rotatable_Bonds:                   7
##########                         Heavy_Atoms:                  29
##########                    Molecular_Weight:              405.52
##########                DOCK_Rotatable_Bonds:                   7
##########                       Formal_Charge:          -0.0499998
##########                     HBond_Acceptors:                   6
##########                        HBond_Donors:                   0
##########                         Heavy_Atoms:                  29
##########                          Grid_Score:          -38.024303
##########                     Grid_vdw_energy:          -37.636536
##########                      Grid_es_energy:           -0.387768
##########           Internal_energy_repulsive:           14.289554

@<TRIPOS>MOLECULE
ZINC000509132103
 52 55 1 0 0
SMALL
USER_CHARGES


@<TRIPOS>ATOM
      1 C1        -15.9073   -1.3002   46.8169 C.3     1  ZINC000509132103    0.0300
      2 O2        -15.0375   -0.3091   47.3678 O.3     1  ZINC000509132103   -0.3000
      3 C3        -14.4811   -0.5805   48.5753 C.ar    1  ZINC000509132103    0.2700
      4 C4        -13.6271    0.3415   49.1745 C.ar    1  ZINC000509132103   -0.1300
      5 C5        -13.0841    0.0172   50.4087 C.ar    1  ZINC000509132103   -0.0700
      6 C6        -13.4249   -1.2047   50.9699 C.ar    1  ZINC000509132103    0.0500
      7 C7        -12.8611   -1.6024   52.3096 C.3     1  ZINC000509132103   -0.0500
      8 S8        -11.3371   -2.5555   52.0656 S.3     1  ZINC000509132103   -0.1500
      9 C9        -10.8665   -3.0129   53.7567 C.3     1  ZINC000509132103   -0.1300
     10 C10       -11.9520   -3.8608   54.3682 C.2     1  ZINC000509132103    0.5400
     11 O11       -12.7971   -4.3670   53.6607 O.2     1  ZINC000509132103   -0.5100
     12 N12       -11.9836   -4.0567   55.7013 N.am    1  ZINC000509132103   -0.6100
     13 C13       -13.0266   -4.8764   56.3273 C.3     1  ZINC000509132103    0.1500
     14 C14       -13.5470   -4.1813   57.5603 C.ar    1  ZINC000509132103   -0.1000
     15 C15       -14.6999   -4.6825   58.1482 C.ar    1  ZINC000509132103   -0.1100
     16 C16       -15.2190   -4.0956   59.2843 C.ar    1  ZINC000509132103   -0.1200
     17 C17       -14.5845   -3.0011   59.8412 C.ar    1  ZINC000509132103   -0.1200
     18 C18       -13.4407   -2.4996   59.2553 C.ar    1  ZINC000509132103   -0.1100
     19 C19       -12.9193   -3.0847   58.1082 C.ar    1  ZINC000509132103   -0.0600
     20 C20       -11.6835   -2.4667   57.5090 C.3     1  ZINC000509132103   -0.0200
     21 H21       -11.9660   -1.5832   56.9366 H       1  ZINC000509132103    0.1000
     22 C22       -10.7456   -2.0606   58.6165 C.ar    1  ZINC000509132103   -0.0800
     23 C23       -10.3713   -0.7371   58.7546 C.ar    1  ZINC000509132103   -0.1100
     24 C24        -9.5110   -0.3647   59.7706 C.ar    1  ZINC000509132103   -0.1200
     25 C25        -9.0253   -1.3156   60.6485 C.ar    1  ZINC000509132103   -0.1200
     26 C26        -9.4004   -2.6389   60.5107 C.ar    1  ZINC000509132103   -0.1200
     27 C27       -10.2641   -3.0108   59.4976 C.ar    1  ZINC000509132103   -0.1100
     28 C28       -10.9690   -3.4615   56.5868 C.3     1  ZINC000509132103    0.1200
     29 N29       -14.2426   -2.0179   50.3308 N.ar    1  ZINC000509132103   -0.1900
     30 N30       -14.7523   -1.7204   49.1910 N.ar    1  ZINC000509132103   -0.3000
     31 H31       -16.7448   -1.4657   47.4947 H       1  ZINC000509132103    0.0600
     32 H32       -16.2827   -0.9584   45.8523 H       1  ZINC000509132103    0.1000
     33 H33       -15.3580   -2.2321   46.6836 H       1  ZINC000509132103    0.0600
     34 H34       -13.3945    1.2799   48.6930 H       1  ZINC000509132103    0.1600
     35 H35       -12.4156    0.6957   50.9177 H       1  ZINC000509132103    0.1600
     36 H36       -12.6406   -0.7073   52.8913 H       1  ZINC000509132103    0.1100
     37 H37       -13.5895   -2.2125   52.8437 H       1  ZINC000509132103    0.1000
     38 H38        -9.9341   -3.5768   53.7344 H       1  ZINC000509132103    0.1100
     39 H39       -10.7312   -2.1104   54.3529 H       1  ZINC000509132103    0.1100
     40 H40       -13.8443   -5.0239   55.6217 H       1  ZINC000509132103    0.1000
     41 H41       -12.6093   -5.8442   56.6053 H       1  ZINC000509132103    0.0900
     42 H42       -15.1948   -5.5382   57.7132 H       1  ZINC000509132103    0.1200
     43 H43       -16.1169   -4.4900   59.7365 H       1  ZINC000509132103    0.1300
     44 H44       -14.9835   -2.5395   60.7323 H       1  ZINC000509132103    0.1200
     45 H45       -12.9464   -1.6445   59.6920 H       1  ZINC000509132103    0.1200
     46 H46       -10.7507    0.0059   58.0687 H       1  ZINC000509132103    0.1200
     47 H47        -9.2179    0.6693   59.8781 H       1  ZINC000509132103    0.1200
     48 H48        -8.3526   -1.0247   61.4418 H       1  ZINC000509132103    0.1200
     49 H49        -9.0207   -3.3820   61.1965 H       1  ZINC000509132103    0.1200
     50 H50       -10.5571   -4.0447   59.3899 H       1  ZINC000509132103    0.1200
     51 H51       -10.4907   -4.2388   57.1828 H       1  ZINC000509132103    0.0800
     52 H52       -10.2203   -2.9396   55.9908 H       1  ZINC000509132103    0.1000
@<TRIPOS>BOND
     1     1     2    1
     2     1    31    1
     3     1    32    1
     4     1    33    1
     5     2     3    1
     6     3    30   ar
     7     3     4   ar
     8     4     5   ar
     9     4    34    1
    10     5     6   ar
    11     5    35    1
    12     6     7    1
    13     6    29   ar
    14     7     8    1
    15     7    36    1
    16     7    37    1
    17     8     9    1
    18     9    10    1
    19     9    38    1
    20     9    39    1
    21    10    11    2
    22    10    12   am
    23    12    28    1
    24    12    13    1
    25    13    14    1
    26    13    40    1
    27    13    41    1
    28    14    19   ar
    29    14    15   ar
    30    15    16   ar
    31    15    42    1
    32    16    17   ar
    33    16    43    1
    34    17    18   ar
    35    17    44    1
    36    18    19   ar
    37    18    45    1
    38    19    20    1
    39    20    21    1
    40    20    22    1
    41    20    28    1
    42    22    27   ar
    43    22    23   ar
    44    23    24   ar
    45    23    46    1
    46    24    25   ar
    47    24    47    1
    48    25    26   ar
    49    25    48    1
    50    26    27   ar
    51    26    49    1
    52    27    50    1
    53    28    51    1
    54    28    52    1
    55    29    30   ar
@<TRIPOS>SUBSTRUCTURE
     1 ZINC000509132103        1 TEMP              0 ****  ****    0 ROOT


##########                                Name:    ZINC000746432885
##########                DOCK_Rotatable_Bonds:                  11
##########                         Heavy_Atoms:                  31
##########                    Molecular_Weight:              419.44
##########                DOCK_Rotatable_Bonds:                  11
##########                       Formal_Charge:           0.0199995
##########                     HBond_Acceptors:                   9
##########                        HBond_Donors:                   2
##########                         Heavy_Atoms:                  31
##########                          Grid_Score:          -38.016827
##########                     Grid_vdw_energy:          -35.734680
##########                      Grid_es_energy:           -2.282146
##########           Internal_energy_repulsive:           22.717222

@<TRIPOS>MOLECULE
ZINC000746432885
 52 54 1 0 0
SMALL
USER_CHARGES


@<TRIPOS>ATOM
      1 C1        -13.4539   -1.3119   51.4718 C.3     1  ZINC000746432885    0.0300
      2 O2        -12.2287   -1.0868   52.1721 O.3     1  ZINC000746432885   -0.3200
      3 C3        -11.6618    0.1418   52.0443 C.ar    1  ZINC000746432885    0.1300
      4 C4        -12.2629    1.1048   51.2469 C.ar    1  ZINC000746432885   -0.2000
      5 C5        -11.6846    2.3528   51.1186 C.ar    1  ZINC000746432885   -0.0800
      6 C6        -10.5076    2.6424   51.7838 C.ar    1  ZINC000746432885   -0.1400
      7 C7         -9.9066    1.6843   52.5791 C.ar    1  ZINC000746432885   -0.0600
      8 C8         -8.6240    2.0033   53.3031 C.3     1  ZINC000746432885    0.2300
      9 N9         -8.5591    1.2296   54.5456 N.am    1  ZINC000746432885   -0.6900
     10 C10        -9.2972    1.6014   55.6102 C.2     1  ZINC000746432885    0.5200
     11 O11       -10.0166    2.5763   55.5393 O.2     1  ZINC000746432885   -0.5100
     12 C12        -9.2297    0.8140   56.8771 C.2     1  ZINC000746432885    0.5100
     13 O13        -8.5497   -0.1903   56.9322 O.2     1  ZINC000746432885   -0.5100
     14 N14        -9.9236    1.2181   57.9596 N.am    1  ZINC000746432885   -0.6100
     15 C15        -9.8588    0.4782   59.1520 C.2     1  ZINC000746432885    0.0000
     16 C16        -9.8904   -0.8759   59.2570 C.2     1  ZINC000746432885    0.0400
     17 N17        -9.8041   -1.1873   60.5700 N.pl3   1  ZINC000746432885   -0.3800
     18 C18        -9.8016   -2.5385   61.1360 C.3     1  ZINC000746432885    0.2500
     19 C19        -9.1530   -3.4643   60.1931 C.1     1  ZINC000746432885    0.1900
     20 N20        -8.6524   -4.1789   59.4656 N.1     1  ZINC000746432885   -0.3900
     21 N21        -9.7170    0.0085   61.2940 N.2     1  ZINC000746432885   -0.2800
     22 C22        -9.7439    1.0057   60.4474 C.2     1  ZINC000746432885    0.0700
     23 C23        -7.4507    1.6464   52.4273 C.ar    1  ZINC000746432885   -0.0500
     24 C24        -7.4247    0.4310   51.7689 C.ar    1  ZINC000746432885   -0.1500
     25 C25        -6.3498    0.1007   50.9642 C.ar    1  ZINC000746432885   -0.0700
     26 C26        -5.2988    0.9850   50.8164 C.ar    1  ZINC000746432885   -0.2000
     27 C27        -5.3224    2.2051   51.4761 C.ar    1  ZINC000746432885    0.1300
     28 O28        -4.2897    3.0768   51.3323 O.3     1  ZINC000746432885   -0.3200
     29 C29        -3.1141    2.5882   50.6832 C.3     1  ZINC000746432885    0.0300
     30 C30        -6.4046    2.5363   52.2787 C.ar    1  ZINC000746432885   -0.1300
     31 C31       -10.4841    0.4368   52.7156 C.ar    1  ZINC000746432885   -0.1300
     32 H32       -13.2920   -1.1739   50.4028 H       1  ZINC000746432885    0.0600
     33 H33       -13.7976   -2.3293   51.6588 H       1  ZINC000746432885    0.1000
     34 H34       -14.2065   -0.6044   51.8197 H       1  ZINC000746432885    0.0600
     35 H35       -13.1819    0.8789   50.7266 H       1  ZINC000746432885    0.1300
     36 H36       -12.1522    3.1029   50.4980 H       1  ZINC000746432885    0.1300
     37 H37       -10.0567    3.6183   51.6817 H       1  ZINC000746432885    0.1200
     38 H38        -8.5932    3.0677   53.5359 H       1  ZINC000746432885    0.1200
     39 H39        -7.9850    0.4498   54.6020 H       1  ZINC000746432885    0.4200
     40 H40       -10.4678    2.0198   57.9152 H       1  ZINC000746432885    0.4200
     41 H41        -9.9703   -1.5770   58.4393 H       1  ZINC000746432885    0.1900
     42 H42        -9.2538   -2.5368   62.0783 H       1  ZINC000746432885    0.1300
     43 H43       -10.8279   -2.8602   61.3130 H       1  ZINC000746432885    0.1500
     44 H44        -9.6931    2.0539   60.7021 H       1  ZINC000746432885    0.2100
     45 H45        -8.2452   -0.2619   51.8834 H       1  ZINC000746432885    0.1200
     46 H46        -6.3317   -0.8495   50.4511 H       1  ZINC000746432885    0.1300
     47 H47        -4.4593    0.7264   50.1881 H       1  ZINC000746432885    0.1300
     48 H48        -2.3695    3.3828   50.6339 H       1  ZINC000746432885    0.1000
     49 H49        -2.7110    1.7469   51.2467 H       1  ZINC000746432885    0.0600
     50 H50        -3.3652    2.2625   49.6738 H       1  ZINC000746432885    0.0600
     51 H51        -6.4253    3.4856   52.7932 H       1  ZINC000746432885    0.1400
     52 H52       -10.0143   -0.3113   53.3369 H       1  ZINC000746432885    0.1300
@<TRIPOS>BOND
     1     1     2    1
     2     1    32    1
     3     1    33    1
     4     1    34    1
     5     2     3    1
     6     3    31   ar
     7     3     4   ar
     8     4     5   ar
     9     4    35    1
    10     5     6   ar
    11     5    36    1
    12     6     7   ar
    13     6    37    1
    14     7     8    1
    15     7    31   ar
    16     8     9    1
    17     8    23    1
    18     8    38    1
    19     9    10   am
    20     9    39    1
    21    10    11    2
    22    10    12    1
    23    12    13    2
    24    12    14   am
    25    14    15    1
    26    14    40    1
    27    15    22    1
    28    15    16    2
    29    16    17    1
    30    16    41    1
    31    17    18    1
    32    17    21    1
    33    18    19    1
    34    18    42    1
    35    18    43    1
    36    19    20    3
    37    21    22    2
    38    22    44    1
    39    23    30   ar
    40    23    24   ar
    41    24    25   ar
    42    24    45    1
    43    25    26   ar
    44    25    46    1
    45    26    27   ar
    46    26    47    1
    47    27    28    1
    48    27    30   ar
    49    28    29    1
    50    29    48    1
    51    29    49    1
    52    29    50    1
    53    30    51    1
    54    31    52    1
@<TRIPOS>SUBSTRUCTURE
     1 ZINC000746432885        1 TEMP              0 ****  ****    0 ROOT


##########                                Name:    ZINC000600609084
##########                DOCK_Rotatable_Bonds:                   8
##########                         Heavy_Atoms:                  30
##########                    Molecular_Weight:             422.548
##########                DOCK_Rotatable_Bonds:                   8
##########                       Formal_Charge:           0.0100005
##########                     HBond_Acceptors:                   6
##########                        HBond_Donors:                   2
##########                         Heavy_Atoms:                  30
##########                          Grid_Score:          -37.963749
##########                     Grid_vdw_energy:          -37.181145
##########                      Grid_es_energy:           -0.782606
##########           Internal_energy_repulsive:           27.244064

@<TRIPOS>MOLECULE
ZINC000600609084
 56 59 1 0 0
SMALL
USER_CHARGES


@<TRIPOS>ATOM
      1 O1        -10.7824   -2.9152   51.8585 O.2     1  ZINC000600609084   -0.5300
      2 C2        -11.8251   -3.0983   52.4503 C.2     1  ZINC000600609084    0.5200
      3 C3        -11.9247   -4.1944   53.4797 C.3     1  ZINC000600609084   -0.1500
      4 C4        -12.9643   -3.8106   54.5345 C.3     1  ZINC000600609084    0.1300
      5 N5        -13.4384   -5.0181   55.2150 N.am    1  ZINC000600609084   -1.1200
      6 S6        -13.9723   -4.9311   56.7802 S.o2    1  ZINC000600609084    2.7000
      7 O7        -14.9670   -3.9168   56.8091 O.2     1  ZINC000600609084   -0.9600
      8 O8        -14.2132   -6.2682   57.1968 O.2     1  ZINC000600609084   -0.9500
      9 C9        -12.6303   -4.3399   57.7570 C.ar    1  ZINC000600609084   -0.6700
     10 C10       -11.4465   -5.0728   57.8121 C.ar    1  ZINC000600609084   -0.0400
     11 C11       -10.3909   -4.6442   58.5570 C.ar    1  ZINC000600609084   -0.1200
     12 C12       -10.4930   -3.4451   59.2822 C.ar    1  ZINC000600609084   -0.0100
     13 C13        -9.4244   -2.9701   60.0618 C.ar    1  ZINC000600609084   -0.1200
     14 C14        -9.5595   -1.8043   60.7506 C.ar    1  ZINC000600609084   -0.0900
     15 C15       -10.7437   -1.0711   60.6955 C.ar    1  ZINC000600609084   -0.1200
     16 C16       -11.7993   -1.4999   59.9512 C.ar    1  ZINC000600609084   -0.0900
     17 C17       -11.6973   -2.6995   59.2260 C.ar    1  ZINC000600609084   -0.0800
     18 C18       -12.7634   -3.1710   58.4419 C.ar    1  ZINC000600609084    0.0200
     19 N19       -12.8930   -2.3178   52.1913 N.am    1  ZINC000600609084   -0.7200
     20 C20       -12.7960   -1.2523   51.1907 C.3     1  ZINC000600609084    0.1400
     21 H21       -11.9518   -1.4393   50.5271 H       1  ZINC000600609084    0.1000
     22 C22       -14.0993   -1.1739   50.3762 C.3     1  ZINC000600609084   -0.1300
     23 C23       -14.6788    0.2370   50.6069 C.3     1  ZINC000600609084   -0.1300
     24 C24       -14.0682    0.6822   51.9589 C.3     1  ZINC000600609084   -0.1200
     25 C25       -12.6279    0.1136   51.8877 C.3     1  ZINC000600609084   -0.0700
     26 H26       -11.9881    0.7683   51.2959 H       1  ZINC000600609084    0.0900
     27 C27       -12.0617   -0.0636   53.2730 C.ar    1  ZINC000600609084   -0.0600
     28 C28       -10.7492    0.2840   53.5329 C.ar    1  ZINC000600609084   -0.1100
     29 C29       -10.2299    0.1214   54.8036 C.ar    1  ZINC000600609084   -0.1200
     30 C30       -11.0232   -0.3883   55.8146 C.ar    1  ZINC000600609084   -0.1200
     31 C31       -12.3359   -0.7350   55.5548 C.ar    1  ZINC000600609084   -0.1200
     32 C32       -12.8565   -0.5684   54.2851 C.ar    1  ZINC000600609084   -0.1100
     33 H33       -12.2254   -5.1227   52.9940 H       1  ZINC000600609084    0.1000
     34 H34       -10.9552   -4.3323   53.9585 H       1  ZINC000600609084    0.1000
     35 H35       -12.5119   -3.1372   55.2625 H       1  ZINC000600609084    0.0900
     36 H36       -13.8048   -3.3119   54.0517 H       1  ZINC000600609084    0.0800
     37 H37       -13.4397   -5.8689   54.7488 H       1  ZINC000600609084    0.4200
     38 H38       -11.3655   -5.9950   57.2560 H       1  ZINC000600609084    0.1400
     39 H39        -9.4796   -5.2229   58.5906 H       1  ZINC000600609084    0.1400
     40 H40        -8.5009   -3.5278   60.1144 H       1  ZINC000600609084    0.1300
     41 H41        -8.7370   -1.4418   61.3493 H       1  ZINC000600609084    0.1300
     42 H42       -10.8249   -0.1492   61.2520 H       1  ZINC000600609084    0.1300
     43 H43       -12.7108   -0.9216   59.9183 H       1  ZINC000600609084    0.1300
     44 H44       -13.6852   -2.6111   58.3859 H       1  ZINC000600609084    0.1500
     45 H45       -13.7256   -2.4617   52.6676 H       1  ZINC000600609084    0.4000
     46 H46       -13.8873   -1.3221   49.3174 H       1  ZINC000600609084    0.0800
     47 H47       -14.8038   -1.9287   50.7256 H       1  ZINC000600609084    0.0700
     48 H48       -14.3700    0.9115   49.8083 H       1  ZINC000600609084    0.0700
     49 H49       -15.7660    0.1965   50.6742 H       1  ZINC000600609084    0.0700
     50 H50       -14.0508    1.7693   52.0356 H       1  ZINC000600609084    0.0700
     51 H51       -14.6159    0.2437   52.7931 H       1  ZINC000600609084    0.0700
     52 H52       -10.1296    0.6822   52.7432 H       1  ZINC000600609084    0.1200
     53 H53        -9.2044    0.3922   55.0065 H       1  ZINC000600609084    0.1200
     54 H54       -10.6172   -0.5160   56.8071 H       1  ZINC000600609084    0.1200
     55 H55       -12.9555   -1.1336   56.3445 H       1  ZINC000600609084    0.1200
     56 H56       -13.8821   -0.8394   54.0822 H       1  ZINC000600609084    0.1200
@<TRIPOS>BOND
     1     1     2    2
     2     2     3    1
     3     2    19   am
     4     3     4    1
     5     3    33    1
     6     3    34    1
     7     4     5    1
     8     4    35    1
     9     4    36    1
    10     5     6   am
    11     5    37    1
    12     6     7    2
    13     6     8    2
    14     6     9    1
    15     9    18   ar
    16     9    10   ar
    17    10    11   ar
    18    10    38    1
    19    11    12   ar
    20    11    39    1
    21    12    17   ar
    22    12    13   ar
    23    13    14   ar
    24    13    40    1
    25    14    15   ar
    26    14    41    1
    27    15    16   ar
    28    15    42    1
    29    16    17   ar
    30    16    43    1
    31    17    18   ar
    32    18    44    1
    33    19    20    1
    34    19    45    1
    35    20    21    1
    36    20    25    1
    37    20    22    1
    38    22    23    1
    39    22    46    1
    40    22    47    1
    41    23    24    1
    42    23    48    1
    43    23    49    1
    44    24    25    1
    45    24    50    1
    46    24    51    1
    47    25    26    1
    48    25    27    1
    49    27    32   ar
    50    27    28   ar
    51    28    29   ar
    52    28    52    1
    53    29    30   ar
    54    29    53    1
    55    30    31   ar
    56    30    54    1
    57    31    32   ar
    58    31    55    1
    59    32    56    1
@<TRIPOS>SUBSTRUCTURE
     1 ZINC000600609084        1 TEMP              0 ****  ****    0 ROOT


##########                                Name:    ZINC000772422035
##########                DOCK_Rotatable_Bonds:                  10
##########                         Heavy_Atoms:                  25
##########                    Molecular_Weight:             348.399
##########                DOCK_Rotatable_Bonds:                  10
##########                       Formal_Charge:          0.00999987
##########                     HBond_Acceptors:                   7
##########                        HBond_Donors:                   0
##########                         Heavy_Atoms:                  25
##########                          Grid_Score:          -37.916401
##########                     Grid_vdw_energy:          -37.924599
##########                      Grid_es_energy:            0.008199
##########           Internal_energy_repulsive:           13.960781

@<TRIPOS>MOLECULE
ZINC000772422035
 49 50 1 0 0
SMALL
USER_CHARGES


@<TRIPOS>ATOM
      1 C1         -2.9847    1.5435   47.8020 C.3     1  ZINC000772422035    0.0300
      2 O2         -3.0105    0.9586   49.1056 O.3     1  ZINC000772422035   -0.3900
      3 C3         -3.7862    1.6911   50.0561 C.3     1  ZINC000772422035    0.0600
      4 C4         -5.1192    0.9761   50.2859 C.3     1  ZINC000772422035    0.0700
      5 O5         -5.8873    1.6986   51.2503 O.3     1  ZINC000772422035   -0.3000
      6 C6         -6.9065    1.0332   51.8496 C.ar    1  ZINC000772422035    0.3300
      7 C7         -7.5228    1.5814   52.9669 C.ar    1  ZINC000772422035   -0.1700
      8 C8         -8.5615    0.8926   53.5691 C.ar    1  ZINC000772422035   -0.0200
      9 C9         -9.2568    1.4533   54.7829 C.3     1  ZINC000772422035    0.1100
     10 O10        -8.6536    0.9028   55.9835 O.3     1  ZINC000772422035   -0.3500
     11 C11        -9.4664    0.6867   57.0297 C.2     1  ZINC000772422035    0.4700
     12 O12       -10.3516    1.4704   57.2789 O.2     1  ZINC000772422035   -0.5000
     13 C13        -9.2746   -0.5332   57.8934 C.3     1  ZINC000772422035   -0.1100
     14 C14       -10.6402   -1.1141   58.2659 C.3     1  ZINC000772422035    0.0000
     15 H15       -11.3626   -0.8726   57.4861 H       1  ZINC000772422035    0.1000
     16 C16       -11.1044   -0.5143   59.5947 C.3     1  ZINC000772422035   -0.1500
     17 C17       -10.5293   -2.6108   58.4019 C.2     1  ZINC000772422035   -0.2000
     18 C18        -9.8075   -3.3149   59.3063 C.2     1  ZINC000772422035   -0.0200
     19 C19        -8.9362   -2.7527   60.3998 C.3     1  ZINC000772422035   -0.0800
     20 O20       -10.0211   -4.6104   59.0365 O.3     1  ZINC000772422035    0.1000
     21 N21       -10.7696   -4.7514   58.0973 N.2     1  ZINC000772422035   -0.3600
     22 C22       -11.1593   -3.6051   57.6188 C.2     1  ZINC000772422035    0.0300
     23 C23       -12.0899   -3.3823   56.4547 C.3     1  ZINC000772422035   -0.0800
     24 C24        -8.9484   -0.3260   53.0293 C.ar    1  ZINC000772422035   -0.1900
     25 C25        -8.2906   -0.8112   51.9163 C.ar    1  ZINC000772422035    0.1400
     26 N26        -7.3073   -0.1288   51.3609 N.ar    1  ZINC000772422035   -0.5300
     27 H27        -2.3756    0.9284   47.1397 H       1  ZINC000772422035    0.0900
     28 H28        -4.0001    1.6035   47.4106 H       1  ZINC000772422035    0.0400
     29 H29        -2.5585    2.5451   47.8616 H       1  ZINC000772422035    0.0400
     30 H30        -3.2412    1.7551   50.9979 H       1  ZINC000772422035    0.0600
     31 H31        -3.9734    2.6953   49.6758 H       1  ZINC000772422035    0.0700
     32 H32        -5.6705    0.9247   49.3469 H       1  ZINC000772422035    0.0800
     33 H33        -4.9317   -0.0331   50.6527 H       1  ZINC000772422035    0.0800
     34 H34        -7.1958    2.5323   53.3610 H       1  ZINC000772422035    0.1400
     35 H35        -9.1559    2.5386   54.7904 H       1  ZINC000772422035    0.0900
     36 H36       -10.3132    1.1868   54.7520 H       1  ZINC000772422035    0.0900
     37 H37        -8.6995   -1.2795   57.3455 H       1  ZINC000772422035    0.1100
     38 H38        -8.7383   -0.2554   58.8007 H       1  ZINC000772422035    0.1100
     39 H39       -10.3242   -0.6450   60.3446 H       1  ZINC000772422035    0.0600
     40 H40       -11.3067    0.5486   59.4625 H       1  ZINC000772422035    0.0800
     41 H41       -12.0128   -1.0190   59.9235 H       1  ZINC000772422035    0.0600
     42 H42        -9.5482   -2.5316   61.2743 H       1  ZINC000772422035    0.0900
     43 H43        -8.1717   -3.4824   60.6665 H       1  ZINC000772422035    0.0900
     44 H44        -8.4587   -1.8376   60.0496 H       1  ZINC000772422035    0.0900
     45 H45       -13.1081   -3.2555   56.8225 H       1  ZINC000772422035    0.0800
     46 H46       -11.7854   -2.4872   55.9122 H       1  ZINC000772422035    0.0800
     47 H47       -12.0494   -4.2431   55.7871 H       1  ZINC000772422035    0.0800
     48 H48        -9.7550   -0.8891   53.4751 H       1  ZINC000772422035    0.1400
     49 H49        -8.5879   -1.7589   51.4922 H       1  ZINC000772422035    0.1700
@<TRIPOS>BOND
     1     1     2    1
     2     1    27    1
     3     1    28    1
     4     1    29    1
     5     2     3    1
     6     3     4    1
     7     3    30    1
     8     3    31    1
     9     4     5    1
    10     4    32    1
    11     4    33    1
    12     5     6    1
    13     6    26   ar
    14     6     7   ar
    15     7     8   ar
    16     7    34    1
    17     8     9    1
    18     8    24   ar
    19     9    10    1
    20     9    35    1
    21     9    36    1
    22    10    11    1
    23    11    12    2
    24    11    13    1
    25    13    14    1
    26    13    37    1
    27    13    38    1
    28    14    15    1
    29    14    16    1
    30    14    17    1
    31    16    39    1
    32    16    40    1
    33    16    41    1
    34    17    22    1
    35    17    18    2
    36    18    19    1
    37    18    20    1
    38    19    42    1
    39    19    43    1
    40    19    44    1
    41    20    21    1
    42    21    22    2
    43    22    23    1
    44    23    45    1
    45    23    46    1
    46    23    47    1
    47    24    25   ar
    48    24    48    1
    49    25    26   ar
    50    25    49    1
@<TRIPOS>SUBSTRUCTURE
     1 ZINC000772422035        1 TEMP              0 ****  ****    0 ROOT


##########                                Name:    ZINC000027473870
##########                DOCK_Rotatable_Bonds:                  10
##########                         Heavy_Atoms:                  31
##########                    Molecular_Weight:             422.502
##########                DOCK_Rotatable_Bonds:                  10
##########                       Formal_Charge:        -7.45058e-08
##########                     HBond_Acceptors:                   7
##########                        HBond_Donors:                   1
##########                         Heavy_Atoms:                  31
##########                          Grid_Score:          -37.909714
##########                     Grid_vdw_energy:          -37.041222
##########                      Grid_es_energy:           -0.868492
##########           Internal_energy_repulsive:           24.644205

@<TRIPOS>MOLECULE
ZINC000027473870
 58 60 1 0 0
SMALL
USER_CHARGES


@<TRIPOS>ATOM
      1 C1         -9.9509    0.5913   55.6305 C.3     1  ZINC000027473870   -0.1400
      2 C2        -10.9568    0.2797   54.5206 C.3     1  ZINC000027473870   -0.0800
      3 C3        -10.3498   -0.7047   53.5544 C.2     1  ZINC000027473870    0.1700
      4 C4         -9.3967   -0.4268   52.5948 C.2     1  ZINC000027473870   -0.2900
      5 C5         -8.7837    0.8863   52.3249 C.2     1  ZINC000027473870    0.6000
      6 O6         -9.4401    1.7686   51.8057 O.2     1  ZINC000027473870   -0.5400
      7 N7         -7.4957    1.1092   52.6535 N.am    1  ZINC000027473870   -0.7200
      8 C8         -6.8871    2.4148   52.3869 C.3     1  ZINC000027473870    0.1600
      9 C9         -5.5293    2.2181   51.7633 C.ar    1  ZINC000027473870   -0.0900
     10 C10        -5.2937    1.1171   50.9592 C.ar    1  ZINC000027473870   -0.1100
     11 C11        -4.0529    0.9308   50.3856 C.ar    1  ZINC000027473870   -0.1100
     12 C12        -3.0342    1.8563   50.6178 C.ar    1  ZINC000027473870   -0.1200
     13 C13        -1.7021    1.6632   50.0061 C.2     1  ZINC000027473870    0.5600
     14 O14        -0.7149    1.5869   50.7110 O.2     1  ZINC000027473870   -0.5300
     15 N15        -1.5825    1.5719   48.6667 N.am    1  ZINC000027473870   -0.6100
     16 C16        -2.7723    1.6639   47.8171 C.3     1  ZINC000027473870    0.1100
     17 C17        -2.4305    2.4392   46.5431 C.3     1  ZINC000027473870   -0.1700
     18 C18        -0.2625    1.3806   48.0606 C.3     1  ZINC000027473870    0.0900
     19 C19         0.4835    2.7161   48.0311 C.3     1  ZINC000027473870   -0.1800
     20 C20        -3.2786    2.9651   51.4296 C.ar    1  ZINC000027473870   -0.0700
     21 C21        -4.5255    3.1422   51.9928 C.ar    1  ZINC000027473870   -0.1000
     22 C22        -9.1185   -1.6369   51.9199 C.2     1  ZINC000027473870    0.0900
     23 N23        -9.8596   -2.5732   52.4461 N.2     1  ZINC000027473870   -0.2800
     24 N24       -10.6324   -2.0173   53.4718 N.pl3   1  ZINC000027473870   -0.3100
     25 C25       -11.5527   -2.7095   54.2717 C.ar    1  ZINC000027473870    0.1300
     26 C26       -11.2917   -2.9048   55.6212 C.ar    1  ZINC000027473870   -0.0900
     27 C27       -12.1997   -3.5864   56.4077 C.ar    1  ZINC000027473870   -0.1300
     28 C28       -13.3698   -4.0749   55.8509 C.ar    1  ZINC000027473870    0.1100
     29 F29       -14.2570   -4.7410   56.6217 F       1  ZINC000027473870   -0.1300
     30 C30       -13.6318   -3.8810   54.5048 C.ar    1  ZINC000027473870   -0.1400
     31 C31       -12.7287   -3.1954   53.7164 C.ar    1  ZINC000027473870   -0.0700
     32 H32       -10.3551    1.3680   56.2797 H       1  ZINC000027473870    0.0700
     33 H33        -9.7637   -0.3096   56.2147 H       1  ZINC000027473870    0.0700
     34 H34        -9.0170    0.9377   55.1876 H       1  ZINC000027473870    0.0500
     35 H35       -11.8587   -0.1490   54.9575 H       1  ZINC000027473870    0.1200
     36 H36       -11.2106    1.1985   53.9919 H       1  ZINC000027473870    0.0800
     37 H37        -6.9717    0.4051   53.0665 H       1  ZINC000027473870    0.4000
     38 H38        -7.5221    2.9792   51.7042 H       1  ZINC000027473870    0.0800
     39 H39        -6.7811    2.9641   53.3224 H       1  ZINC000027473870    0.0800
     40 H40        -6.0828    0.4017   50.7804 H       1  ZINC000027473870    0.1300
     41 H41        -3.8700    0.0705   49.7588 H       1  ZINC000027473870    0.1500
     42 H42        -3.1086    0.6612   47.5530 H       1  ZINC000027473870    0.0800
     43 H43        -3.5648    2.1825   48.3566 H       1  ZINC000027473870    0.0800
     44 H44        -3.3159    2.5076   45.9109 H       1  ZINC000027473870    0.0700
     45 H45        -2.0943    3.4418   46.8072 H       1  ZINC000027473870    0.0600
     46 H46        -1.6381    1.9204   46.0037 H       1  ZINC000027473870    0.0600
     47 H47         0.3061    0.6598   48.6481 H       1  ZINC000027473870    0.0800
     48 H48        -0.3804    1.0077   47.0431 H       1  ZINC000027473870    0.0900
     49 H49         1.3410    2.6386   47.3626 H       1  ZINC000027473870    0.0700
     50 H50        -0.1860    3.4985   47.6740 H       1  ZINC000027473870    0.0700
     51 H51         0.8272    2.9626   49.0357 H       1  ZINC000027473870    0.0600
     52 H52        -2.4945    3.6846   51.6135 H       1  ZINC000027473870    0.1300
     53 H53        -4.7162    3.9999   52.6209 H       1  ZINC000027473870    0.1300
     54 H54        -8.4157   -1.7644   51.1099 H       1  ZINC000027473870    0.1900
     55 H55       -10.3792   -2.5243   56.0558 H       1  ZINC000027473870    0.1500
     56 H56       -11.9968   -3.7387   57.4575 H       1  ZINC000027473870    0.1500
     57 H57       -14.5447   -4.2631   54.0723 H       1  ZINC000027473870    0.1500
     58 H58       -12.9336   -3.0441   52.6669 H       1  ZINC000027473870    0.1400
@<TRIPOS>BOND
     1     1     2    1
     2     1    32    1
     3     1    33    1
     4     1    34    1
     5     2     3    1
     6     2    35    1
     7     2    36    1
     8     3    24    1
     9     3     4    2
    10     4     5    1
    11     4    22    1
    12     5     6    2
    13     5     7   am
    14     7     8    1
    15     7    37    1
    16     8     9    1
    17     8    38    1
    18     8    39    1
    19     9    21   ar
    20     9    10   ar
    21    10    11   ar
    22    10    40    1
    23    11    12   ar
    24    11    41    1
    25    12    13    1
    26    12    20   ar
    27    13    14    2
    28    13    15   am
    29    15    16    1
    30    15    18    1
    31    16    17    1
    32    16    42    1
    33    16    43    1
    34    17    44    1
    35    17    45    1
    36    17    46    1
    37    18    19    1
    38    18    47    1
    39    18    48    1
    40    19    49    1
    41    19    50    1
    42    19    51    1
    43    20    21   ar
    44    20    52    1
    45    21    53    1
    46    22    23    2
    47    22    54    1
    48    23    24    1
    49    24    25    1
    50    25    31   ar
    51    25    26   ar
    52    26    27   ar
    53    26    55    1
    54    27    28   ar
    55    27    56    1
    56    28    29    1
    57    28    30   ar
    58    30    31   ar
    59    30    57    1
    60    31    58    1
@<TRIPOS>SUBSTRUCTURE
     1 ZINC000027473870        1 TEMP              0 ****  ****    0 ROOT


##########                                Name:    ZINC000508571532
##########                DOCK_Rotatable_Bonds:                   9
##########                         Heavy_Atoms:                  30
##########                    Molecular_Weight:             422.407
##########                DOCK_Rotatable_Bonds:                   9
##########                       Formal_Charge:           0.0100001
##########                     HBond_Acceptors:                  10
##########                        HBond_Donors:                   0
##########                         Heavy_Atoms:                  30
##########                          Grid_Score:          -37.851768
##########                     Grid_vdw_energy:          -37.628220
##########                      Grid_es_energy:           -0.223550
##########           Internal_energy_repulsive:           21.967854

@<TRIPOS>MOLECULE
ZINC000508571532
 51 53 1 0 0
SMALL
USER_CHARGES


@<TRIPOS>ATOM
      1 C1         -4.5373    1.9942   50.2295 C.3     1  ZINC000508571532    0.0300
      2 O2         -5.7396    2.4508   50.8522 O.3     1  ZINC000508571532   -0.3200
      3 C3         -6.6275    1.5011   51.2510 C.ar    1  ZINC000508571532    0.0900
      4 C4         -6.3715    0.1620   50.9965 C.ar    1  ZINC000508571532   -0.1700
      5 C5         -7.2733   -0.8028   51.4016 C.ar    1  ZINC000508571532   -0.1100
      6 C6         -8.4346   -0.4322   52.0632 C.ar    1  ZINC000508571532    0.0900
      7 O7         -9.3226   -1.3818   52.4615 O.3     1  ZINC000508571532   -0.3100
      8 C8        -10.5031   -0.9279   53.1268 C.3     1  ZINC000508571532    0.1500
      9 C9        -11.2338   -2.1077   53.7143 C.2     1  ZINC000508571532    0.1700
     10 N10       -11.3044   -3.3045   53.2042 N.2     1  ZINC000508571532   -0.2500
     11 N11       -12.0070   -4.0667   53.9640 N.2     1  ZINC000508571532   -0.3000
     12 C12       -12.4257   -3.3916   55.0082 C.2     1  ZINC000508571532    0.3500
     13 N13       -13.2079   -3.8774   56.0439 N.3     1  ZINC000508571532   -0.4600
     14 C14       -13.9183   -5.0979   55.6394 C.3     1  ZINC000508571532    0.0300
     15 C15       -12.3999   -4.1132   57.2479 C.3     1  ZINC000508571532    0.1100
     16 C16       -12.7471   -3.0865   58.2950 C.ar    1  ZINC000508571532   -0.0900
     17 C17       -14.0687   -2.8488   58.6184 C.ar    1  ZINC000508571532   -0.0600
     18 C18       -14.3880   -1.9065   59.5788 C.ar    1  ZINC000508571532   -0.1300
     19 C19       -13.3859   -1.2006   60.2180 C.ar    1  ZINC000508571532   -0.0700
     20 C20       -12.0623   -1.4350   59.8984 C.ar    1  ZINC000508571532   -0.1900
     21 C21       -11.7391   -2.3834   58.9391 C.ar    1  ZINC000508571532    0.1100
     22 O22       -10.4380   -2.6158   58.6230 O.3     1  ZINC000508571532   -0.3100
     23 C23        -9.5900   -3.0879   59.6718 C.3     1  ZINC000508571532    0.6000
     24 F24       -10.3748   -3.5750   60.7227 F       1  ZINC000508571532   -0.1600
     25 F25        -8.7735   -4.1143   59.1850 F       1  ZINC000508571532   -0.1300
     26 F26        -8.7915   -2.0366   60.1347 F       1  ZINC000508571532   -0.1600
     27 N27       -11.9408   -2.1221   54.8848 N.pl3   1  ZINC000508571532   -0.4500
     28 C28       -12.1436   -1.0040   55.8093 C.3     1  ZINC000508571532    0.0800
     29 C29        -8.6900    0.9068   52.3189 C.ar    1  ZINC000508571532   -0.1700
     30 C30        -7.7863    1.8713   51.9172 C.ar    1  ZINC000508571532   -0.1100
     31 H31        -3.9191    2.8509   49.9610 H       1  ZINC000508571532    0.1000
     32 H32        -3.9901    1.3539   50.9214 H       1  ZINC000508571532    0.0600
     33 H33        -4.7854    1.4294   49.3307 H       1  ZINC000508571532    0.0600
     34 H34        -5.4672   -0.1265   50.4814 H       1  ZINC000508571532    0.1400
     35 H35        -7.0743   -1.8455   51.2028 H       1  ZINC000508571532    0.1300
     36 H36       -10.2282   -0.2371   53.9238 H       1  ZINC000508571532    0.0800
     37 H37       -11.1500   -0.4191   52.4121 H       1  ZINC000508571532    0.1000
     38 H38       -13.2008   -5.9065   55.4994 H       1  ZINC000508571532    0.0600
     39 H39       -14.6328   -5.3762   56.4140 H       1  ZINC000508571532    0.0800
     40 H40       -14.4483   -4.9168   54.7043 H       1  ZINC000508571532    0.0700
     41 H41       -12.6069   -5.1110   57.6347 H       1  ZINC000508571532    0.0700
     42 H42       -11.3422   -4.0330   56.9970 H       1  ZINC000508571532    0.0900
     43 H43       -14.8534   -3.3991   58.1205 H       1  ZINC000508571532    0.1400
     44 H44       -15.4220   -1.7215   59.8297 H       1  ZINC000508571532    0.1300
     45 H45       -13.6378   -0.4649   60.9674 H       1  ZINC000508571532    0.1400
     46 H46       -11.2798   -0.8830   60.3978 H       1  ZINC000508571532    0.1400
     47 H47       -11.3001   -0.9435   56.4970 H       1  ZINC000508571532    0.0900
     48 H48       -12.2194   -0.0747   55.2446 H       1  ZINC000508571532    0.0900
     49 H49       -13.0623   -1.1617   56.3743 H       1  ZINC000508571532    0.1000
     50 H50        -9.5941    1.1954   52.8343 H       1  ZINC000508571532    0.1400
     51 H51        -7.9851    2.9140   52.1163 H       1  ZINC000508571532    0.1400
@<TRIPOS>BOND
     1     1     2    1
     2     1    31    1
     3     1    32    1
     4     1    33    1
     5     2     3    1
     6     3    30   ar
     7     3     4   ar
     8     4     5   ar
     9     4    34    1
    10     5     6   ar
    11     5    35    1
    12     6     7    1
    13     6    29   ar
    14     7     8    1
    15     8     9    1
    16     8    36    1
    17     8    37    1
    18     9    27    1
    19     9    10    2
    20    10    11    1
    21    11    12    2
    22    12    13    1
    23    12    27    1
    24    13    14    1
    25    13    15    1
    26    14    38    1
    27    14    39    1
    28    14    40    1
    29    15    16    1
    30    15    41    1
    31    15    42    1
    32    16    21   ar
    33    16    17   ar
    34    17    18   ar
    35    17    43    1
    36    18    19   ar
    37    18    44    1
    38    19    20   ar
    39    19    45    1
    40    20    21   ar
    41    20    46    1
    42    21    22    1
    43    22    23    1
    44    23    24    1
    45    23    25    1
    46    23    26    1
    47    27    28    1
    48    28    47    1
    49    28    48    1
    50    28    49    1
    51    29    30   ar
    52    29    50    1
    53    30    51    1
@<TRIPOS>SUBSTRUCTURE
     1 ZINC000508571532        1 TEMP              0 ****  ****    0 ROOT


##########                                Name:    ZINC001369071670
##########                DOCK_Rotatable_Bonds:                   8
##########                         Heavy_Atoms:                  24
##########                    Molecular_Weight:             335.366
##########                DOCK_Rotatable_Bonds:                   8
##########                       Formal_Charge:        -2.90573e-07
##########                     HBond_Acceptors:                  10
##########                        HBond_Donors:                   1
##########                         Heavy_Atoms:                  24
##########                          Grid_Score:          -37.809040
##########                     Grid_vdw_energy:          -38.345818
##########                      Grid_es_energy:            0.536777
##########           Internal_energy_repulsive:            5.731082

@<TRIPOS>MOLECULE
ZINC001369071670
 45 47 1 0 0
SMALL
USER_CHARGES


@<TRIPOS>ATOM
      1 C1         -5.4618    0.9896   50.7279 C.3     1  ZINC001369071670   -0.0800
      2 C2         -6.6154    0.1028   51.1204 C.2     1  ZINC001369071670    0.0000
      3 C3         -7.6633    0.4398   51.9067 C.2     1  ZINC001369071670   -0.2300
      4 C4         -8.4481   -0.7417   51.9562 C.2     1  ZINC001369071670    0.2100
      5 O5         -9.6159   -0.9162   52.6250 O.3     1  ZINC001369071670   -0.2600
      6 C6        -10.2433   -2.1951   52.5121 C.3     1  ZINC001369071670    0.0400
      7 C7        -11.3802   -2.2857   53.4972 C.2     1  ZINC001369071670    0.5200
      8 O8        -12.2426   -1.4329   53.5080 O.2     1  ZINC001369071670   -0.5100
      9 N9        -11.4387   -3.3143   54.3660 N.am    1  ZINC001369071670   -0.7200
     10 C10       -12.5449   -3.4033   55.3224 C.3     1  ZINC001369071670    0.1500
     11 H11       -12.9859   -2.4161   55.4609 H       1  ZINC001369071670    0.0900
     12 C12       -13.6067   -4.3655   54.7862 C.3     1  ZINC001369071670   -0.1700
     13 C13       -12.0194   -3.9196   56.6634 C.3     1  ZINC001369071670   -0.1200
     14 C14       -10.9432   -3.0185   57.2956 C.3     1  ZINC001369071670    0.0100
     15 N15       -11.6397   -3.2556   58.5793 N.3     1  ZINC001369071670   -0.4800
     16 C16       -11.7418   -2.0153   59.3597 C.3     1  ZINC001369071670    0.1000
     17 C17       -10.6151   -1.9563   60.3588 C.2     1  ZINC001369071670    0.1900
     18 N18        -9.6635   -2.8433   60.5184 N.2     1  ZINC001369071670   -0.3000
     19 N19        -8.8945   -2.4354   61.4682 N.2     1  ZINC001369071670   -0.0700
     20 N20        -9.3309   -1.3113   61.9188 N.2     1  ZINC001369071670   -0.0900
     21 N21       -10.3875   -0.9798   61.2566 N.pl3   1  ZINC001369071670   -0.3000
     22 C22       -11.1935    0.2279   61.4519 C.3     1  ZINC001369071670    0.0800
     23 C23       -12.9039   -3.5376   57.8640 C.3     1  ZINC001369071670    0.0200
     24 N24        -7.8215   -1.6272   51.2287 N.2     1  ZINC001369071670   -0.4100
     25 O25        -6.8067   -1.1726   50.7538 O.3     1  ZINC001369071670    0.1000
     26 H26        -4.7798    0.4347   50.0837 H       1  ZINC001369071670    0.0900
     27 H27        -5.8390    1.8610   50.1928 H       1  ZINC001369071670    0.1000
     28 H28        -4.9321    1.3144   51.6236 H       1  ZINC001369071670    0.1000
     29 H29        -7.8576    1.3881   52.3856 H       1  ZINC001369071670    0.1800
     30 H30       -10.6283   -2.3229   51.5003 H       1  ZINC001369071670    0.1000
     31 H31        -9.5148   -2.9774   52.7252 H       1  ZINC001369071670    0.1000
     32 H32       -10.7484   -3.9957   54.3581 H       1  ZINC001369071670    0.4000
     33 H33       -13.9810   -3.9977   53.8309 H       1  ZINC001369071670    0.0600
     34 H34       -13.1657   -5.3527   54.6478 H       1  ZINC001369071670    0.0600
     35 H35       -14.4296   -4.4318   55.4978 H       1  ZINC001369071670    0.0700
     36 H36       -11.7492   -4.9751   56.6358 H       1  ZINC001369071670    0.1100
     37 H37        -9.9389   -3.4403   57.2564 H       1  ZINC001369071670    0.1000
     38 H38       -10.9843   -1.9827   56.9585 H       1  ZINC001369071670    0.0800
     39 H39       -11.6783   -1.1581   58.6895 H       1  ZINC001369071670    0.1000
     40 H40       -12.6959   -1.9949   59.8864 H       1  ZINC001369071670    0.0900
     41 H41       -10.8090    1.0277   60.8188 H       1  ZINC001369071670    0.1000
     42 H42       -12.2298    0.0202   61.1855 H       1  ZINC001369071670    0.1000
     43 H43       -11.1412    0.5346   62.4966 H       1  ZINC001369071670    0.1100
     44 H44       -13.5183   -2.6537   57.6931 H       1  ZINC001369071670    0.0800
     45 H45       -13.4661   -4.3741   58.2790 H       1  ZINC001369071670    0.1000
@<TRIPOS>BOND
     1     1     2    1
     2     1    26    1
     3     1    27    1
     4     1    28    1
     5     2    25    1
     6     2     3    2
     7     3     4    1
     8     3    29    1
     9     4     5    1
    10     4    24    2
    11     5     6    1
    12     6     7    1
    13     6    30    1
    14     6    31    1
    15     7     8    2
    16     7     9   am
    17     9    10    1
    18     9    32    1
    19    10    11    1
    20    10    12    1
    21    10    13    1
    22    12    33    1
    23    12    34    1
    24    12    35    1
    25    13    23    1
    26    13    14    1
    27    13    36    1
    28    14    15    1
    29    14    37    1
    30    14    38    1
    31    15    16    1
    32    15    23    1
    33    16    17    1
    34    16    39    1
    35    16    40    1
    36    17    21    1
    37    17    18    2
    38    18    19    1
    39    19    20    2
    40    20    21    1
    41    21    22    1
    42    22    41    1
    43    22    42    1
    44    22    43    1
    45    23    44    1
    46    23    45    1
    47    24    25    1
@<TRIPOS>SUBSTRUCTURE
     1 ZINC001369071670        1 TEMP              0 ****  ****    0 ROOT


##########                                Name:    ZINC000433961694
##########                DOCK_Rotatable_Bonds:                   7
##########                         Heavy_Atoms:                  29
##########                    Molecular_Weight:             413.472
##########                DOCK_Rotatable_Bonds:                   7
##########                       Formal_Charge:          0.00999992
##########                     HBond_Acceptors:                   8
##########                        HBond_Donors:                   0
##########                         Heavy_Atoms:                  29
##########                          Grid_Score:          -37.783863
##########                     Grid_vdw_energy:          -37.653633
##########                      Grid_es_energy:           -0.130229
##########           Internal_energy_repulsive:           13.963767

@<TRIPOS>MOLECULE
ZINC000433961694
 49 52 1 0 0
SMALL
USER_CHARGES


@<TRIPOS>ATOM
      1 C1        -13.3816   -1.9715   58.2920 C.3     1  ZINC000433961694   -0.1000
      2 C2        -12.1341   -2.8049   58.4346 C.2     1  ZINC000433961694    0.1600
      3 C3        -11.9329   -3.9545   57.7431 C.2     1  ZINC000433961694   -0.3000
      4 C4        -12.8591   -4.5568   56.7782 C.2     1  ZINC000433961694    0.6200
      5 O5        -13.5867   -5.4697   57.1215 O.2     1  ZINC000433961694   -0.5100
      6 N6        -12.9042   -4.0990   55.5113 N.am    1  ZINC000433961694   -0.6100
      7 C7        -13.7833   -4.6100   54.4438 C.3     1  ZINC000433961694    0.1100
      8 C8        -13.9231   -3.4322   53.4474 C.3     1  ZINC000433961694   -0.1300
      9 C9        -12.4994   -2.8168   53.4908 C.3     1  ZINC000433961694    0.0800
     10 H10       -11.8246   -3.3587   52.8280 H       1  ZINC000433961694    0.1000
     11 O11       -12.5372   -1.4303   53.1469 O.3     1  ZINC000433961694   -0.2900
     12 C12       -11.3451   -0.8105   52.9538 C.ar    1  ZINC000433961694    0.1700
     13 C13       -10.2010   -1.5429   52.6474 C.ar    1  ZINC000433961694   -0.2600
     14 C14        -9.0081   -0.8757   52.4585 C.ar    1  ZINC000433961694    0.1400
     15 N15        -8.9439    0.4380   52.5648 N.ar    1  ZINC000433961694   -0.5100
     16 C16       -10.0058    1.1663   52.8536 C.ar    1  ZINC000433961694    0.1400
     17 C17       -11.2364    0.5744   53.0514 C.ar    1  ZINC000433961694   -0.2000
     18 C18       -12.0895   -3.0029   54.9668 C.3     1  ZINC000433961694    0.0600
     19 S19       -10.3591   -4.5943   58.2113 S.3     1  ZINC000433961694    0.2100
     20 C20       -10.1287   -3.2752   59.2740 C.2     1  ZINC000433961694    0.0400
     21 C21        -8.9082   -3.0656   60.1328 C.3     1  ZINC000433961694    0.1400
     22 O22        -8.5974   -1.6718   60.1867 O.3     1  ZINC000433961694   -0.3000
     23 C23        -8.9915   -0.9941   61.2974 C.ar    1  ZINC000433961694    0.1200
     24 C24        -8.4904   -1.3487   62.5413 C.ar    1  ZINC000433961694   -0.1800
     25 C25        -8.8918   -0.6593   63.6691 C.ar    1  ZINC000433961694   -0.1100
     26 C26        -9.7941    0.3850   63.5583 C.ar    1  ZINC000433961694    0.0600
     27 F27       -10.1861    1.0582   64.6621 F       1  ZINC000433961694   -0.1400
     28 C28       -10.2946    0.7404   62.3173 C.ar    1  ZINC000433961694   -0.1100
     29 C29        -9.8906    0.0563   61.1871 C.ar    1  ZINC000433961694   -0.1200
     30 N30       -11.1484   -2.4791   59.2325 N.2     1  ZINC000433961694   -0.4500
     31 H31       -13.2408   -1.2400   57.4962 H       1  ZINC000433961694    0.0800
     32 H32       -14.2242   -2.6178   58.0466 H       1  ZINC000433961694    0.1000
     33 H33       -13.5819   -1.4539   59.2301 H       1  ZINC000433961694    0.0800
     34 H34       -13.3250   -5.4691   53.9538 H       1  ZINC000433961694    0.0800
     35 H35       -14.7575   -4.8798   54.8513 H       1  ZINC000433961694    0.1000
     36 H36       -14.1625   -3.7930   52.4471 H       1  ZINC000433961694    0.1000
     37 H37       -14.6690   -2.7157   53.7915 H       1  ZINC000433961694    0.1000
     38 H38       -10.2466   -2.6183   52.5593 H       1  ZINC000433961694    0.1400
     39 H39        -8.1157   -1.4358   52.2209 H       1  ZINC000433961694    0.1600
     40 H40        -9.9114    2.2393   52.9318 H       1  ZINC000433961694    0.1700
     41 H41       -12.1017    1.1762   53.2872 H       1  ZINC000433961694    0.1400
     42 H42       -12.2767   -2.0839   55.5223 H       1  ZINC000433961694    0.0900
     43 H43       -11.0337   -3.2669   55.0278 H       1  ZINC000433961694    0.0800
     44 H44        -9.1051   -3.4331   61.1399 H       1  ZINC000433961694    0.0900
     45 H45        -8.0657   -3.6095   59.7058 H       1  ZINC000433961694    0.1000
     46 H46        -7.7872   -2.1638   62.6281 H       1  ZINC000433961694    0.1400
     47 H47        -8.5019   -0.9352   64.6377 H       1  ZINC000433961694    0.1400
     48 H48       -10.9982    1.5554   62.2322 H       1  ZINC000433961694    0.1500
     49 H49       -10.2811    0.3337   60.2192 H       1  ZINC000433961694    0.1400
@<TRIPOS>BOND
     1     1     2    1
     2     1    31    1
     3     1    32    1
     4     1    33    1
     5     2    30    1
     6     2     3    2
     7     3     4    1
     8     3    19    1
     9     4     5    2
    10     4     6   am
    11     6    18    1
    12     6     7    1
    13     7     8    1
    14     7    34    1
    15     7    35    1
    16     8     9    1
    17     8    36    1
    18     8    37    1
    19     9    10    1
    20     9    11    1
    21     9    18    1
    22    11    12    1
    23    12    17   ar
    24    12    13   ar
    25    13    14   ar
    26    13    38    1
    27    14    15   ar
    28    14    39    1
    29    15    16   ar
    30    16    17   ar
    31    16    40    1
    32    17    41    1
    33    18    42    1
    34    18    43    1
    35    19    20    1
    36    20    21    1
    37    20    30    2
    38    21    22    1
    39    21    44    1
    40    21    45    1
    41    22    23    1
    42    23    29   ar
    43    23    24   ar
    44    24    25   ar
    45    24    46    1
    46    25    26   ar
    47    25    47    1
    48    26    27    1
    49    26    28   ar
    50    28    29   ar
    51    28    48    1
    52    29    49    1
@<TRIPOS>SUBSTRUCTURE
     1 ZINC000433961694        1 TEMP              0 ****  ****    0 ROOT


##########                                Name:    ZINC000512699033
##########                DOCK_Rotatable_Bonds:                   9
##########                         Heavy_Atoms:                  30
##########                    Molecular_Weight:              405.54
##########                DOCK_Rotatable_Bonds:                   9
##########                       Formal_Charge:           0.0199988
##########                     HBond_Acceptors:                   5
##########                        HBond_Donors:                   2
##########                         Heavy_Atoms:                  30
##########                          Grid_Score:          -37.781544
##########                     Grid_vdw_energy:          -36.587952
##########                      Grid_es_energy:           -1.193590
##########           Internal_energy_repulsive:           13.341143

@<TRIPOS>MOLECULE
ZINC000512699033
 61 64 1 0 0
SMALL
USER_CHARGES


@<TRIPOS>ATOM
      1 O1        -11.4193   -3.6499   52.8564 O.2     1  ZINC000512699033   -0.5100
      2 C2        -11.3569   -2.5350   53.3298 C.2     1  ZINC000512699033    0.5200
      3 C3        -10.6508   -1.4359   52.5786 C.3     1  ZINC000512699033   -0.1500
      4 C4        -11.6320   -0.2948   52.3026 C.3     1  ZINC000512699033    0.1300
      5 N5        -12.6615   -0.7518   51.3659 N.am    1  ZINC000512699033   -0.7300
      6 C6        -13.9024   -0.2286   51.4206 C.2     1  ZINC000512699033    0.5200
      7 O7        -14.1663    0.6215   52.2443 O.2     1  ZINC000512699033   -0.5300
      8 C8        -14.9620   -0.7000   50.4582 C.3     1  ZINC000512699033   -0.1100
      9 C9        -14.3382   -0.9142   49.0777 C.3     1  ZINC000512699033   -0.1100
     10 C10       -15.4140   -1.3928   48.1007 C.3     1  ZINC000512699033   -0.1200
     11 C11       -16.0083   -2.7105   48.6018 C.3     1  ZINC000512699033   -0.1200
     12 C12       -16.6321   -2.4962   49.9824 C.3     1  ZINC000512699033   -0.1200
     13 C13       -15.5563   -2.0177   50.9594 C.3     1  ZINC000512699033   -0.1000
     14 N14       -11.9237   -2.2777   54.5253 N.am    1  ZINC000512699033   -0.6600
     15 C15       -12.5794   -3.2983   55.2228 C.ar    1  ZINC000512699033    0.1700
     16 C16       -13.7294   -3.8725   54.6976 C.ar    1  ZINC000512699033   -0.1400
     17 C17       -14.3739   -4.8802   55.3884 C.ar    1  ZINC000512699033   -0.1000
     18 C18       -13.8753   -5.3168   56.6019 C.ar    1  ZINC000512699033   -0.1400
     19 C19       -12.7302   -4.7470   57.1277 C.ar    1  ZINC000512699033   -0.0900
     20 C20       -12.0779   -3.7431   56.4393 C.ar    1  ZINC000512699033   -0.1200
     21 C21       -10.8301   -3.1228   57.0129 C.3     1  ZINC000512699033    0.0900
     22 N22       -10.9199   -3.1086   58.4792 N.3     1  ZINC000512699033   -0.4700
     23 C23        -9.9540   -4.0549   59.0785 C.3     1  ZINC000512699033    0.0500
     24 C24        -9.6094   -3.3787   60.4254 C.3     1  ZINC000512699033   -0.0900
     25 C25        -9.8805   -1.9138   60.1457 C.ar    1  ZINC000512699033   -0.1400
     26 C26        -9.5083   -0.7698   60.8193 C.ar    1  ZINC000512699033   -0.0800
     27 C27        -9.8892    0.4713   60.3412 C.ar    1  ZINC000512699033   -0.1400
     28 C28       -10.6437    0.5627   59.1862 C.ar    1  ZINC000512699033   -0.0900
     29 C29       -11.0205   -0.5789   58.5097 C.ar    1  ZINC000512699033   -0.1400
     30 C30       -10.6434   -1.8330   58.9865 C.ar    1  ZINC000512699033    0.0900
     31 H31        -9.8191   -1.0633   53.1765 H       1  ZINC000512699033    0.1100
     32 H32       -10.2727   -1.8265   51.6338 H       1  ZINC000512699033    0.1000
     33 H33       -12.1018    0.0143   53.2363 H       1  ZINC000512699033    0.0800
     34 H34       -11.0952    0.5490   51.8692 H       1  ZINC000512699033    0.0800
     35 H35       -12.4501   -1.4308   50.7063 H       1  ZINC000512699033    0.4000
     36 H36       -15.7494    0.0506   50.3887 H       1  ZINC000512699033    0.1000
     37 H37       -13.9148    0.0246   48.7206 H       1  ZINC000512699033    0.0700
     38 H38       -13.5509   -1.6647   49.1473 H       1  ZINC000512699033    0.0700
     39 H39       -16.2014   -0.6422   48.0311 H       1  ZINC000512699033    0.0600
     40 H40       -14.9697   -1.5454   47.1172 H       1  ZINC000512699033    0.0700
     41 H41       -16.7747   -3.0514   47.9058 H       1  ZINC000512699033    0.0600
     42 H42       -15.2209   -3.4610   48.6715 H       1  ZINC000512699033    0.0600
     43 H43       -17.4195   -1.7458   49.9129 H       1  ZINC000512699033    0.0600
     44 H44       -17.0555   -3.4351   50.3394 H       1  ZINC000512699033    0.0700
     45 H45       -14.7689   -2.7682   51.0290 H       1  ZINC000512699033    0.0700
     46 H46       -16.0007   -1.8651   51.9430 H       1  ZINC000512699033    0.0700
     47 H47       -11.8774   -1.3851   54.9019 H       1  ZINC000512699033    0.4200
     48 H48       -14.1196   -3.5313   53.7500 H       1  ZINC000512699033    0.1500
     49 H49       -15.2684   -5.3271   54.9804 H       1  ZINC000512699033    0.1300
     50 H50       -14.3816   -6.1043   57.1404 H       1  ZINC000512699033    0.1200
     51 H51       -12.3432   -5.0902   58.0757 H       1  ZINC000512699033    0.1200
     52 H52        -9.9612   -3.7058   56.7077 H       1  ZINC000512699033    0.0600
     53 H53       -10.7299   -2.1016   56.6452 H       1  ZINC000512699033    0.0900
     54 H54       -10.4168   -5.0282   59.2417 H       1  ZINC000512699033    0.1000
     55 H55        -9.0654   -4.1478   58.4541 H       1  ZINC000512699033    0.0600
     56 H56       -10.2592   -3.7467   61.2194 H       1  ZINC000512699033    0.0900
     57 H57        -8.5610   -3.5357   60.6791 H       1  ZINC000512699033    0.0800
     58 H58        -8.9190   -0.8427   61.7214 H       1  ZINC000512699033    0.1200
     59 H59        -9.5982    1.3671   60.8696 H       1  ZINC000512699033    0.1300
     60 H60       -10.9395    1.5318   58.8123 H       1  ZINC000512699033    0.1300
     61 H61       -11.6102   -0.5008   57.6082 H       1  ZINC000512699033    0.1200
@<TRIPOS>BOND
     1     1     2    2
     2     2     3    1
     3     2    14   am
     4     3     4    1
     5     3    31    1
     6     3    32    1
     7     4     5    1
     8     4    33    1
     9     4    34    1
    10     5     6   am
    11     5    35    1
    12     6     7    2
    13     6     8    1
    14     8    13    1
    15     8     9    1
    16     8    36    1
    17     9    10    1
    18     9    37    1
    19     9    38    1
    20    10    11    1
    21    10    39    1
    22    10    40    1
    23    11    12    1
    24    11    41    1
    25    11    42    1
    26    12    13    1
    27    12    43    1
    28    12    44    1
    29    13    45    1
    30    13    46    1
    31    14    15    1
    32    14    47    1
    33    15    20   ar
    34    15    16   ar
    35    16    17   ar
    36    16    48    1
    37    17    18   ar
    38    17    49    1
    39    18    19   ar
    40    18    50    1
    41    19    20   ar
    42    19    51    1
    43    20    21    1
    44    21    22    1
    45    21    52    1
    46    21    53    1
    47    22    30    1
    48    22    23    1
    49    23    24    1
    50    23    54    1
    51    23    55    1
    52    24    25    1
    53    24    56    1
    54    24    57    1
    55    25    30   ar
    56    25    26   ar
    57    26    27   ar
    58    26    58    1
    59    27    28   ar
    60    27    59    1
    61    28    29   ar
    62    28    60    1
    63    29    30   ar
    64    29    61    1
@<TRIPOS>SUBSTRUCTURE
     1 ZINC000512699033        1 TEMP              0 ****  ****    0 ROOT


##########                                Name:    ZINC001284642199
##########                DOCK_Rotatable_Bonds:                   8
##########                         Heavy_Atoms:                  25
##########                    Molecular_Weight:             346.516
##########                DOCK_Rotatable_Bonds:                   8
##########                       Formal_Charge:         -3.8743e-07
##########                     HBond_Acceptors:                   5
##########                        HBond_Donors:                   2
##########                         Heavy_Atoms:                  25
##########                          Grid_Score:          -37.729786
##########                     Grid_vdw_energy:          -37.246803
##########                      Grid_es_energy:           -0.482983
##########           Internal_energy_repulsive:           18.339359

@<TRIPOS>MOLECULE
ZINC001284642199
 59 60 1 0 0
SMALL
USER_CHARGES


@<TRIPOS>ATOM
      1 C1         -6.5020    1.1529   51.6942 C.3     1  ZINC001284642199   -0.1100
      2 C2         -7.7631    0.3706   51.9561 C.ar    1  ZINC001284642199   -0.1900
      3 C3         -7.8411   -0.9767   51.6402 C.ar    1  ZINC001284642199    0.1500
      4 N4         -8.9648   -1.6313   51.8849 N.ar    1  ZINC001284642199   -0.4900
      5 C5        -10.0005   -1.0176   52.4217 C.ar    1  ZINC001284642199    0.3100
      6 C6        -11.2616   -1.8000   52.6836 C.3     1  ZINC001284642199    0.1300
      7 N7        -11.2129   -2.3685   54.0372 N.3     1  ZINC001284642199   -0.6800
      8 C8        -12.4310   -3.1355   54.3302 C.3     1  ZINC001284642199    0.0500
      9 C9        -12.2978   -3.7999   55.7020 C.3     1  ZINC001284642199    0.1600
     10 H10       -11.5868   -4.6238   55.6390 H       1  ZINC001284642199    0.1000
     11 N11       -11.8203   -2.8162   56.6768 N.am    1  ZINC001284642199   -0.7200
     12 C12       -10.8604   -3.1542   57.5605 C.2     1  ZINC001284642199    0.5200
     13 O13       -10.3909   -4.2724   57.5476 O.2     1  ZINC001284642199   -0.5300
     14 C14       -10.3705   -2.1428   58.5645 C.3     1  ZINC001284642199   -0.1100
     15 H15        -9.5525   -1.5674   58.1310 H       1  ZINC001284642199    0.0900
     16 C16       -11.5156   -1.1992   58.9381 C.3     1  ZINC001284642199   -0.1000
     17 C17       -11.0182   -0.1724   59.9575 C.3     1  ZINC001284642199   -0.1100
     18 C18       -10.5242   -0.8965   61.2115 C.3     1  ZINC001284642199   -0.0900
     19 H19       -11.3423   -1.4718   61.6449 H       1  ZINC001284642199    0.0700
     20 C20       -10.0268    0.1304   62.2308 C.3     1  ZINC001284642199   -0.1500
     21 C21        -9.3792   -1.8400   60.8378 C.3     1  ZINC001284642199   -0.1100
     22 C22        -9.8765   -2.8669   59.8185 C.3     1  ZINC001284642199   -0.1100
     23 C23       -13.6611   -4.3355   56.1438 C.3     1  ZINC001284642199   -0.0800
     24 C24       -14.3366   -5.0435   54.9676 C.3     1  ZINC001284642199   -0.1400
     25 C25       -13.4715   -5.3259   57.2945 C.3     1  ZINC001284642199   -0.1400
     26 C26       -14.5387   -3.1727   56.6112 C.3     1  ZINC001284642199   -0.1300
     27 N27        -9.9644    0.2631   52.7305 N.ar    1  ZINC001284642199   -0.5100
     28 C28        -8.8728    0.9809   52.5192 C.ar    1  ZINC001284642199    0.1500
     29 H29        -6.5417    1.5814   50.6928 H       1  ZINC001284642199    0.0800
     30 H30        -6.4118    1.9533   52.4286 H       1  ZINC001284642199    0.0700
     31 H31        -5.6404    0.4898   51.7717 H       1  ZINC001284642199    0.0700
     32 H32        -6.9963   -1.4853   51.1999 H       1  ZINC001284642199    0.1700
     33 H33       -11.3477   -2.6053   51.9542 H       1  ZINC001284642199    0.1000
     34 H34       -12.1237   -1.1386   52.5981 H       1  ZINC001284642199    0.0600
     35 H35       -11.0650   -1.6472   54.7273 H       1  ZINC001284642199    0.3400
     36 H36       -12.5704   -3.9014   53.5674 H       1  ZINC001284642199    0.0900
     37 H37       -13.2905   -2.4652   54.3333 H       1  ZINC001284642199    0.0400
     38 H38       -12.1950   -1.9215   56.6864 H       1  ZINC001284642199    0.3900
     39 H39       -12.3337   -1.7745   59.3715 H       1  ZINC001284642199    0.0700
     40 H40       -11.8676   -0.6833   58.0448 H       1  ZINC001284642199    0.0700
     41 H41       -11.8339    0.4998   60.2237 H       1  ZINC001284642199    0.0700
     42 H42       -10.2001    0.4030   59.5241 H       1  ZINC001284642199    0.0600
     43 H43       -10.8426    0.8026   62.4970 H       1  ZINC001284642199    0.0500
     44 H44        -9.6748   -0.3854   63.1242 H       1  ZINC001284642199    0.0500
     45 H45        -9.2087    0.7057   61.7974 H       1  ZINC001284642199    0.0500
     46 H46        -8.5611   -1.2647   60.4044 H       1  ZINC001284642199    0.0600
     47 H47        -9.0272   -2.3559   61.7311 H       1  ZINC001284642199    0.0700
     48 H48       -10.6947   -3.4422   60.2519 H       1  ZINC001284642199    0.0700
     49 H49        -9.0609   -3.5390   59.5523 H       1  ZINC001284642199    0.0600
     50 H50       -13.7113   -5.8719   54.6346 H       1  ZINC001284642199    0.0600
     51 H51       -15.3079   -5.4250   55.2823 H       1  ZINC001284642199    0.0600
     52 H52       -14.4717   -4.3378   54.1479 H       1  ZINC001284642199    0.0500
     53 H53       -12.9904   -4.8216   58.1325 H       1  ZINC001284642199    0.0600
     54 H54       -14.4428   -5.7076   57.6093 H       1  ZINC001284642199    0.0600
     55 H55       -12.8463   -6.1544   56.9614 H       1  ZINC001284642199    0.0600
     56 H56       -14.6739   -2.4671   55.7916 H       1  ZINC001284642199    0.0500
     57 H57       -15.5101   -3.5543   56.9260 H       1  ZINC001284642199    0.0500
     58 H58       -14.0576   -2.6684   57.4492 H       1  ZINC001284642199    0.0600
     59 H59        -8.8485    2.0292   52.7780 H       1  ZINC001284642199    0.1700
@<TRIPOS>BOND
     1     1     2    1
     2     1    29    1
     3     1    30    1
     4     1    31    1
     5     2    28   ar
     6     2     3   ar
     7     3     4   ar
     8     3    32    1
     9     4     5   ar
    10     5     6    1
    11     5    27   ar
    12     6     7    1
    13     6    33    1
    14     6    34    1
    15     7     8    1
    16     7    35    1
    17     8     9    1
    18     8    36    1
    19     8    37    1
    20     9    10    1
    21     9    11    1
    22     9    23    1
    23    11    12   am
    24    11    38    1
    25    12    13    2
    26    12    14    1
    27    14    15    1
    28    14    22    1
    29    14    16    1
    30    16    17    1
    31    16    39    1
    32    16    40    1
    33    17    18    1
    34    17    41    1
    35    17    42    1
    36    18    19    1
    37    18    20    1
    38    18    21    1
    39    20    43    1
    40    20    44    1
    41    20    45    1
    42    21    22    1
    43    21    46    1
    44    21    47    1
    45    22    48    1
    46    22    49    1
    47    23    24    1
    48    23    25    1
    49    23    26    1
    50    24    50    1
    51    24    51    1
    52    24    52    1
    53    25    53    1
    54    25    54    1
    55    25    55    1
    56    26    56    1
    57    26    57    1
    58    26    58    1
    59    27    28   ar
    60    28    59    1
@<TRIPOS>SUBSTRUCTURE
     1 ZINC001284642199        1 TEMP              0 ****  ****    0 ROOT


##########                                Name:    ZINC000457806032
##########                DOCK_Rotatable_Bonds:                   8
##########                         Heavy_Atoms:                  24
##########                    Molecular_Weight:             387.911
##########                DOCK_Rotatable_Bonds:                   8
##########                       Formal_Charge:        -1.49012e-07
##########                     HBond_Acceptors:                   9
##########                        HBond_Donors:                   2
##########                         Heavy_Atoms:                  24
##########                          Grid_Score:          -37.668034
##########                     Grid_vdw_energy:          -33.020077
##########                      Grid_es_energy:           -4.647958
##########           Internal_energy_repulsive:           14.840672

@<TRIPOS>MOLECULE
ZINC000457806032
 42 43 1 0 0
SMALL
USER_CHARGES


@<TRIPOS>ATOM
      1 C1         -4.2295    4.4304   65.4549 C.3     1  ZINC000457806032    0.0800
      2 N2         -3.4595    3.4649   64.6667 N.am    1  ZINC000457806032   -1.0100
      3 C3         -3.1458    3.7489   63.2641 C.3     1  ZINC000457806032    0.0900
      4 S4         -2.9438    2.0527   65.3610 S.o2    1  ZINC000457806032    2.7900
      5 O5         -2.3705    1.2781   64.3167 O.2     1  ZINC000457806032   -0.9700
      6 O6         -2.2341    2.4193   66.5363 O.2     1  ZINC000457806032   -0.9700
      7 N7         -4.2919    1.2335   65.8650 N.am    1  ZINC000457806032   -1.1300
      8 C8         -5.1950    1.8419   66.8451 C.3     1  ZINC000457806032    0.1100
      9 C9         -6.4972    1.0410   66.9046 C.3     1  ZINC000457806032    0.1100
     10 N10        -7.1797    1.1217   65.6108 N.am    1  ZINC000457806032   -0.7300
     11 C11        -7.9647    0.1068   65.1985 C.2     1  ZINC000457806032    0.5800
     12 O12        -8.1078   -0.8756   65.9013 O.2     1  ZINC000457806032   -0.5300
     13 C13        -8.6493    0.1872   63.8974 C.2     1  ZINC000457806032   -0.1500
     14 C14        -9.1334    1.3527   63.3845 C.2     1  ZINC000457806032   -0.2200
     15 S15        -9.8630    1.0811   61.8665 S.3     1  ZINC000457806032    0.2400
     16 C16        -9.5025   -0.6369   61.9362 C.2     1  ZINC000457806032   -0.1700
     17 C17        -9.8547   -1.6212   60.8900 C.ar    1  ZINC000457806032   -0.0100
     18 C18        -9.0881   -2.7758   60.7282 C.ar    1  ZINC000457806032   -0.0900
     19 C19        -9.4213   -3.6904   59.7506 C.ar    1  ZINC000457806032   -0.1000
     20 C20       -10.5138   -3.4640   58.9306 C.ar    1  ZINC000457806032   -0.0300
     21 Cl21      -10.9268   -4.6191   57.7023 Cl      1  ZINC000457806032   -0.0600
     22 C22       -11.2785   -2.3204   59.0868 C.ar    1  ZINC000457806032   -0.1000
     23 C23       -10.9583   -1.4015   60.0648 C.ar    1  ZINC000457806032   -0.1000
     24 C24        -8.8548   -0.9230   63.0767 C.2     1  ZINC000457806032   -0.0700
     25 H25        -5.2928    4.2094   65.3622 H       1  ZINC000457806032    0.0600
     26 H26        -3.9343    4.3622   66.5020 H       1  ZINC000457806032    0.0800
     27 H27        -4.0342    5.4377   65.0872 H       1  ZINC000457806032    0.0800
     28 H28        -2.1956    4.2797   63.2046 H       1  ZINC000457806032    0.0600
     29 H29        -3.0741    2.8123   62.7110 H       1  ZINC000457806032    0.0700
     30 H30        -3.9342    4.3659   62.8331 H       1  ZINC000457806032    0.0700
     31 H31        -4.4835    0.3509   65.5113 H       1  ZINC000457806032    0.4200
     32 H32        -4.7212    1.8386   67.8268 H       1  ZINC000457806032    0.0700
     33 H33        -5.4128    2.8684   66.5503 H       1  ZINC000457806032    0.0900
     34 H34        -6.2728   -0.0010   67.1326 H       1  ZINC000457806032    0.0800
     35 H35        -7.1415    1.4523   67.6816 H       1  ZINC000457806032    0.0800
     36 H36        -7.0666    1.9057   65.0508 H       1  ZINC000457806032    0.4000
     37 H37        -9.0649    2.3145   63.8710 H       1  ZINC000457806032    0.1700
     38 H38        -8.2353   -2.9530   61.3668 H       1  ZINC000457806032    0.1400
     39 H39        -8.8287   -4.5844   59.6245 H       1  ZINC000457806032    0.1400
     40 H40       -12.1295   -2.1491   58.4443 H       1  ZINC000457806032    0.1400
     41 H41       -11.5556   -0.5099   60.1859 H       1  ZINC000457806032    0.1300
     42 H42        -8.5306   -1.9195   63.3383 H       1  ZINC000457806032    0.1600
@<TRIPOS>BOND
     1     1     2    1
     2     1    25    1
     3     1    26    1
     4     1    27    1
     5     2     3    1
     6     2     4   am
     7     3    28    1
     8     3    29    1
     9     3    30    1
    10     4     5    2
    11     4     6    2
    12     4     7   am
    13     7     8    1
    14     7    31    1
    15     8     9    1
    16     8    32    1
    17     8    33    1
    18     9    10    1
    19     9    34    1
    20     9    35    1
    21    10    11   am
    22    10    36    1
    23    11    12    2
    24    11    13    1
    25    13    24    1
    26    13    14    2
    27    14    15    1
    28    14    37    1
    29    15    16    1
    30    16    17    1
    31    16    24    2
    32    17    23   ar
    33    17    18   ar
    34    18    19   ar
    35    18    38    1
    36    19    20   ar
    37    19    39    1
    38    20    21    1
    39    20    22   ar
    40    22    23   ar
    41    22    40    1
    42    23    41    1
    43    24    42    1
@<TRIPOS>SUBSTRUCTURE
     1 ZINC000457806032        1 TEMP              0 ****  ****    0 ROOT


##########                                Name:    ZINC000918875053
##########                DOCK_Rotatable_Bonds:                   6
##########                         Heavy_Atoms:                  26
##########                    Molecular_Weight:             359.357
##########                DOCK_Rotatable_Bonds:                   6
##########                       Formal_Charge:           0.0200003
##########                     HBond_Acceptors:                   8
##########                        HBond_Donors:                   0
##########                         Heavy_Atoms:                  26
##########                          Grid_Score:          -37.658939
##########                     Grid_vdw_energy:          -36.656597
##########                      Grid_es_energy:           -1.002341
##########           Internal_energy_repulsive:            9.803098

@<TRIPOS>MOLECULE
ZINC000918875053
 44 47 1 0 0
SMALL
USER_CHARGES


@<TRIPOS>ATOM
      1 C1        -11.9695   -1.3801   51.7424 C.3     1  ZINC000918875053   -0.1700
      2 C2        -10.8988   -1.7125   52.7838 C.3     1  ZINC000918875053    0.1900
      3 H3        -11.1514   -1.2339   53.7300 H       1  ZINC000918875053    0.1400
      4 O4        -10.8354   -3.1510   52.9706 O.3     1  ZINC000918875053   -0.3400
      5 C5        -11.7863   -3.7084   53.7368 C.2     1  ZINC000918875053    0.4800
      6 O6        -12.2634   -4.7745   53.4274 O.2     1  ZINC000918875053   -0.4900
      7 C7        -12.2589   -3.0044   54.9826 C.3     1  ZINC000918875053   -0.0900
      8 H8        -12.7962   -2.0900   54.7314 H       1  ZINC000918875053    0.1400
      9 C9        -13.1337   -3.9400   55.8488 C.3     1  ZINC000918875053   -0.1400
     10 C10       -12.7613   -3.5844   57.2712 C.2     1  ZINC000918875053    0.5300
     11 O11       -13.4076   -3.8816   58.2536 O.2     1  ZINC000918875053   -0.5000
     12 N12       -11.6096   -2.8915   57.2881 N.am    1  ZINC000918875053   -0.5800
     13 C13       -10.9966   -2.4058   58.4499 C.ar    1  ZINC000918875053    0.1000
     14 C14       -10.2480   -3.2578   59.2494 C.ar    1  ZINC000918875053   -0.0800
     15 C15        -9.6438   -2.7759   60.3949 C.ar    1  ZINC000918875053   -0.1200
     16 C16        -9.7841   -1.4462   60.7461 C.ar    1  ZINC000918875053   -0.0800
     17 C17       -10.5292   -0.5929   59.9525 C.ar    1  ZINC000918875053   -0.1500
     18 C18       -11.1318   -1.0669   58.8019 C.ar    1  ZINC000918875053    0.1100
     19 F19       -11.8592   -0.2336   58.0264 F       1  ZINC000918875053   -0.1300
     20 C20       -11.0771   -2.7082   55.9322 C.3     1  ZINC000918875053    0.1200
     21 C21        -9.5610   -1.2084   52.3071 C.2     1  ZINC000918875053    0.1800
     22 N22        -9.0550   -0.0172   52.5179 N.2     1  ZINC000918875053   -0.4600
     23 C23        -7.8544   -0.0213   51.9118 C.2     1  ZINC000918875053    0.2100
     24 C24        -6.8745    1.1227   51.8659 C.3     1  ZINC000918875053   -0.0900
     25 C25        -5.8518    1.1318   50.7280 C.3     1  ZINC000918875053   -0.1600
     26 C26        -7.0140    2.1269   50.7201 C.3     1  ZINC000918875053   -0.1500
     27 N27        -7.6945   -1.1930   51.3733 N.2     1  ZINC000918875053   -0.3700
     28 O28        -8.6611   -1.8919   51.5938 O.3     1  ZINC000918875053    0.1000
     29 H29       -12.9371   -1.7447   52.0871 H       1  ZINC000918875053    0.0900
     30 H30       -12.0170   -0.3003   51.6021 H       1  ZINC000918875053    0.0900
     31 H31       -11.7170   -1.8587   50.7962 H       1  ZINC000918875053    0.0800
     32 H32       -14.1915   -3.7457   55.6714 H       1  ZINC000918875053    0.1300
     33 H33       -12.8967   -4.9837   55.6420 H       1  ZINC000918875053    0.1100
     34 H34       -10.1379   -4.2971   58.9768 H       1  ZINC000918875053    0.1400
     35 H35        -9.0612   -3.4392   61.0171 H       1  ZINC000918875053    0.1400
     36 H36        -9.3112   -1.0729   61.6423 H       1  ZINC000918875053    0.1400
     37 H37       -10.6369    0.4453   60.2296 H       1  ZINC000918875053    0.1400
     38 H38       -10.2621   -3.4085   55.7491 H       1  ZINC000918875053    0.1000
     39 H39       -10.7318   -1.6831   55.7980 H       1  ZINC000918875053    0.1000
     40 H40        -6.5534    1.5057   52.8346 H       1  ZINC000918875053    0.1400
     41 H41        -4.8576    1.5207   50.9478 H       1  ZINC000918875053    0.1100
     42 H42        -5.8879    0.3103   50.0124 H       1  ZINC000918875053    0.1000
     43 H43        -7.8146    1.9601   49.9994 H       1  ZINC000918875053    0.1000
     44 H44        -6.7843    3.1705   50.9348 H       1  ZINC000918875053    0.1100
@<TRIPOS>BOND
     1     1     2    1
     2     1    29    1
     3     1    30    1
     4     1    31    1
     5     2     3    1
     6     2     4    1
     7     2    21    1
     8     4     5    1
     9     5     6    2
    10     5     7    1
    11     7     8    1
    12     7    20    1
    13     7     9    1
    14     9    10    1
    15     9    32    1
    16     9    33    1
    17    10    11    2
    18    10    12   am
    19    12    13    1
    20    12    20    1
    21    13    18   ar
    22    13    14   ar
    23    14    15   ar
    24    14    34    1
    25    15    16   ar
    26    15    35    1
    27    16    17   ar
    28    16    36    1
    29    17    18   ar
    30    17    37    1
    31    18    19    1
    32    20    38    1
    33    20    39    1
    34    21    28    1
    35    21    22    2
    36    22    23    1
    37    23    24    1
    38    23    27    2
    39    24    26    1
    40    24    25    1
    41    24    40    1
    42    25    26    1
    43    25    41    1
    44    25    42    1
    45    26    43    1
    46    26    44    1
    47    27    28    1
@<TRIPOS>SUBSTRUCTURE
     1 ZINC000918875053        1 TEMP              0 ****  ****    0 ROOT


##########                                Name:    ZINC001109848453
##########                DOCK_Rotatable_Bonds:                   8
##########                         Heavy_Atoms:                  24
##########                    Molecular_Weight:             328.337
##########                DOCK_Rotatable_Bonds:                   8
##########                       Formal_Charge:          0.00999966
##########                     HBond_Acceptors:                  11
##########                        HBond_Donors:                   2
##########                         Heavy_Atoms:                  24
##########                          Grid_Score:          -37.632240
##########                     Grid_vdw_energy:          -36.815639
##########                      Grid_es_energy:           -0.816600
##########           Internal_energy_repulsive:            6.792469

@<TRIPOS>MOLECULE
ZINC001109848453
 40 43 1 0 0
SMALL
USER_CHARGES


@<TRIPOS>ATOM
      1 O1        -11.8128   -1.4338   54.2869 O.2     1  ZINC001109848453   -0.5000
      2 C2        -11.5087   -2.5008   53.7970 C.2     1  ZINC001109848453    0.5000
      3 C3        -10.9215   -2.5531   52.4101 C.3     1  ZINC001109848453    0.1100
      4 N4         -9.8059   -1.6081   52.3162 N.pl3   1  ZINC001109848453   -0.3700
      5 C5         -9.8347   -0.2961   52.6072 C.2     1  ZINC001109848453    0.2600
      6 N6         -8.6401    0.1933   52.3946 N.2     1  ZINC001109848453   -0.5400
      7 C7         -7.8256   -0.7716   51.9691 C.2     1  ZINC001109848453    0.2000
      8 N8         -8.4924   -1.8943   51.9098 N.2     1  ZINC001109848453   -0.2900
      9 N9        -11.6908   -3.6393   54.4950 N.am    1  ZINC001109848453   -0.7300
     10 C10       -12.2617   -3.5884   55.8432 C.3     1  ZINC001109848453    0.1700
     11 H11       -12.8746   -2.6928   55.9448 H       1  ZINC001109848453    0.1000
     12 C12       -11.1319   -3.5530   56.8744 C.3     1  ZINC001109848453    0.1200
     13 N13       -11.5910   -2.8546   58.0777 N.pl3   1  ZINC001109848453   -0.6800
     14 C14       -10.7421   -2.7138   59.1631 C.2     1  ZINC001109848453    0.4900
     15 N15        -9.6451   -3.4412   59.2487 N.2     1  ZINC001109848453   -0.5300
     16 C16        -8.8159   -3.3174   60.2881 C.2     1  ZINC001109848453    0.1400
     17 C17        -9.0659   -2.4473   61.2882 C.2     1  ZINC001109848453   -0.0500
     18 N18       -10.1887   -1.6680   61.2507 N.pl3   1  ZINC001109848453   -0.1800
     19 N19       -10.6857   -0.7740   62.0299 N.2     1  ZINC001109848453   -0.1000
     20 N20       -11.7859   -0.3342   61.5249 N.2     1  ZINC001109848453   -0.0400
     21 N21       -12.0287   -0.9318   60.4074 N.2     1  ZINC001109848453   -0.2600
     22 C22       -11.0405   -1.7842   60.1870 C.2     1  ZINC001109848453    0.1000
     23 C23       -13.1273   -4.8281   56.0777 C.3     1  ZINC001109848453   -0.1800
     24 C24       -14.4789   -4.6260   56.7657 C.3     1  ZINC001109848453   -0.1700
     25 C25       -14.4219   -4.9485   55.2711 C.3     1  ZINC001109848453   -0.1700
     26 H26       -10.5616   -3.5615   52.2056 H       1  ZINC001109848453    0.1300
     27 H27       -11.6865   -2.2856   51.6812 H       1  ZINC001109848453    0.1200
     28 H28       -10.6941    0.2577   52.9553 H       1  ZINC001109848453    0.2200
     29 H29        -6.7826   -0.6470   51.7180 H       1  ZINC001109848453    0.2200
     30 H30       -11.4439   -4.4922   54.1046 H       1  ZINC001109848453    0.4000
     31 H31       -10.8440   -4.5719   57.1332 H       1  ZINC001109848453    0.1000
     32 H32       -10.2735   -3.0282   56.4550 H       1  ZINC001109848453    0.0900
     33 H33       -12.4895   -2.4909   58.1144 H       1  ZINC001109848453    0.4200
     34 H34        -7.9255   -3.9274   60.3291 H       1  ZINC001109848453    0.2000
     35 H35        -8.3798   -2.3664   62.1183 H       1  ZINC001109848453    0.1900
     36 H36       -12.5832   -5.7469   56.2963 H       1  ZINC001109848453    0.1100
     37 H37       -14.8242   -5.4120   57.4373 H       1  ZINC001109848453    0.1000
     38 H38       -14.7513   -3.6101   57.0513 H       1  ZINC001109848453    0.1000
     39 H39       -14.6568   -4.1446   54.5735 H       1  ZINC001109848453    0.1200
     40 H40       -14.7297   -5.9465   54.9594 H       1  ZINC001109848453    0.0900
@<TRIPOS>BOND
     1     1     2    2
     2     2     3    1
     3     2     9   am
     4     3     4    1
     5     3    26    1
     6     3    27    1
     7     4     8    1
     8     4     5    1
     9     5     6    2
    10     5    28    1
    11     6     7    1
    12     7     8    2
    13     7    29    1
    14     9    10    1
    15     9    30    1
    16    10    11    1
    17    10    12    1
    18    10    23    1
    19    12    13    1
    20    12    31    1
    21    12    32    1
    22    13    14    1
    23    13    33    1
    24    14    22    1
    25    14    15    2
    26    15    16    1
    27    16    17    2
    28    16    34    1
    29    17    18    1
    30    17    35    1
    31    18    22    1
    32    18    19    1
    33    19    20    2
    34    20    21    1
    35    21    22    2
    36    23    25    1
    37    23    24    1
    38    23    36    1
    39    24    25    1
    40    24    37    1
    41    24    38    1
    42    25    39    1
    43    25    40    1
@<TRIPOS>SUBSTRUCTURE
     1 ZINC001109848453        1 TEMP              0 ****  ****    0 ROOT


##########                                Name:    ZINC000914736341
##########                DOCK_Rotatable_Bonds:                   7
##########                         Heavy_Atoms:                  27
##########                    Molecular_Weight:             384.905
##########                DOCK_Rotatable_Bonds:                   7
##########                       Formal_Charge:                0.02
##########                     HBond_Acceptors:                   5
##########                        HBond_Donors:                   1
##########                         Heavy_Atoms:                  27
##########                          Grid_Score:          -37.538261
##########                     Grid_vdw_energy:          -37.666668
##########                      Grid_es_energy:            0.128407
##########           Internal_energy_repulsive:           28.289251

@<TRIPOS>MOLECULE
ZINC000914736341
 52 54 1 0 0
SMALL
USER_CHARGES


@<TRIPOS>ATOM
      1 C1         -9.7724    2.6918   52.8385 C.3     1  ZINC000914736341   -0.1400
      2 C2         -9.3683    1.2394   53.1002 C.3     1  ZINC000914736341   -0.0300
      3 C3         -9.1077    1.0441   54.5951 C.3     1  ZINC000914736341   -0.1400
      4 C4        -10.4967    0.3078   52.6532 C.3     1  ZINC000914736341    0.1300
      5 N5        -10.4820   -0.9058   53.4736 N.am    1  ZINC000914736341   -0.7200
      6 C6        -11.3540   -1.9015   53.2197 C.2     1  ZINC000914736341    0.5300
      7 O7        -12.1519   -1.7923   52.3128 O.2     1  ZINC000914736341   -0.5300
      8 C8        -11.3377   -3.1507   54.0625 C.3     1  ZINC000914736341   -0.1200
      9 H9        -10.4026   -3.6951   53.9314 H       1  ZINC000914736341    0.1200
     10 C10       -12.5524   -4.0516   53.7402 C.3     1  ZINC000914736341   -0.1400
     11 C11       -12.9502   -4.6312   55.0798 C.2     1  ZINC000914736341    0.5200
     12 O12       -13.6715   -5.5940   55.2334 O.2     1  ZINC000914736341   -0.5200
     13 N13       -12.3876   -3.9240   56.0749 N.am    1  ZINC000914736341   -0.6100
     14 C14       -12.5588   -4.2210   57.4992 C.3     1  ZINC000914736341    0.1600
     15 C15       -11.4368   -3.5895   58.2825 C.ar    1  ZINC000914736341   -0.1000
     16 C16       -10.2691   -4.2937   58.5071 C.ar    1  ZINC000914736341   -0.0800
     17 C17        -9.2397   -3.7145   59.2257 C.ar    1  ZINC000914736341   -0.1100
     18 C18        -9.3779   -2.4313   59.7203 C.ar    1  ZINC000914736341   -0.1000
     19 C19       -10.5454   -1.7259   59.4962 C.ar    1  ZINC000914736341   -0.1100
     20 C20       -11.5734   -2.3025   58.7721 C.ar    1  ZINC000914736341   -0.0300
     21 Cl21      -13.0399   -1.4174   58.4903 Cl      1  ZINC000914736341   -0.0600
     22 C22       -11.5786   -2.8163   55.5513 C.3     1  ZINC000914736341    0.1000
     23 C23        -8.1159    0.9191   52.3258 C.ar    1  ZINC000914736341   -0.0700
     24 C24        -7.1038    1.8557   52.2302 C.ar    1  ZINC000914736341   -0.1200
     25 C25        -5.9549    1.5618   51.5198 C.ar    1  ZINC000914736341   -0.1200
     26 C26        -5.8181    0.3311   50.9054 C.ar    1  ZINC000914736341   -0.1200
     27 C27        -6.8298   -0.6059   51.0018 C.ar    1  ZINC000914736341   -0.1200
     28 C28        -7.9768   -0.3136   51.7158 C.ar    1  ZINC000914736341   -0.1100
     29 H29        -8.9686    3.3556   53.1570 H       1  ZINC000914736341    0.0600
     30 H30        -9.9581    2.8309   51.7736 H       1  ZINC000914736341    0.0600
     31 H31       -10.6783    2.9234   53.3986 H       1  ZINC000914736341    0.0600
     32 H32       -10.0136    1.2757   55.1552 H       1  ZINC000914736341    0.0600
     33 H33        -8.8200    0.0094   54.7816 H       1  ZINC000914736341    0.0600
     34 H34        -8.3039    1.7079   54.9137 H       1  ZINC000914736341    0.0600
     35 H35       -11.4545    0.8146   52.7711 H       1  ZINC000914736341    0.0700
     36 H36       -10.3536    0.0403   51.6063 H       1  ZINC000914736341    0.0700
     37 H37        -9.8446   -0.9927   54.1997 H       1  ZINC000914736341    0.4000
     38 H38       -13.3670   -3.4590   53.3239 H       1  ZINC000914736341    0.1100
     39 H39       -12.2660   -4.8458   53.0508 H       1  ZINC000914736341    0.1100
     40 H40       -13.5123   -3.8191   57.8421 H       1  ZINC000914736341    0.1000
     41 H41       -12.5443   -5.3004   57.6496 H       1  ZINC000914736341    0.1000
     42 H42       -10.1608   -5.2966   58.1216 H       1  ZINC000914736341    0.1400
     43 H43        -8.3273   -4.2651   59.4010 H       1  ZINC000914736341    0.1300
     44 H44        -8.5737   -1.9796   60.2822 H       1  ZINC000914736341    0.1300
     45 H45       -10.6534   -0.7232   59.8827 H       1  ZINC000914736341    0.1400
     46 H46       -10.6295   -2.7576   56.0841 H       1  ZINC000914736341    0.1000
     47 H47       -12.1222   -1.8760   55.6429 H       1  ZINC000914736341    0.0900
     48 H48        -7.2108    2.8172   52.7102 H       1  ZINC000914736341    0.1300
     49 H49        -5.1645    2.2939   51.4445 H       1  ZINC000914736341    0.1200
     50 H50        -4.9207    0.1018   50.3498 H       1  ZINC000914736341    0.1200
     51 H51        -6.7229   -1.5672   50.5215 H       1  ZINC000914736341    0.1200
     52 H52        -8.7672   -1.0457   51.7911 H       1  ZINC000914736341    0.1200
@<TRIPOS>BOND
     1     1     2    1
     2     1    29    1
     3     1    30    1
     4     1    31    1
     5     2     3    1
     6     2     4    1
     7     2    23    1
     8     3    32    1
     9     3    33    1
    10     3    34    1
    11     4     5    1
    12     4    35    1
    13     4    36    1
    14     5     6   am
    15     5    37    1
    16     6     7    2
    17     6     8    1
    18     8     9    1
    19     8    22    1
    20     8    10    1
    21    10    11    1
    22    10    38    1
    23    10    39    1
    24    11    12    2
    25    11    13   am
    26    13    14    1
    27    13    22    1
    28    14    15    1
    29    14    40    1
    30    14    41    1
    31    15    20   ar
    32    15    16   ar
    33    16    17   ar
    34    16    42    1
    35    17    18   ar
    36    17    43    1
    37    18    19   ar
    38    18    44    1
    39    19    20   ar
    40    19    45    1
    41    20    21    1
    42    22    46    1
    43    22    47    1
    44    23    28   ar
    45    23    24   ar
    46    24    25   ar
    47    24    48    1
    48    25    26   ar
    49    25    49    1
    50    26    27   ar
    51    26    50    1
    52    27    28   ar
    53    27    51    1
    54    28    52    1
@<TRIPOS>SUBSTRUCTURE
     1 ZINC000914736341        1 TEMP              0 ****  ****    0 ROOT


##########                                Name:    ZINC001105793963
##########                DOCK_Rotatable_Bonds:                   9
##########                         Heavy_Atoms:                  24
##########                    Molecular_Weight:             337.422
##########                DOCK_Rotatable_Bonds:                   9
##########                       Formal_Charge:          -0.0100003
##########                     HBond_Acceptors:                   8
##########                        HBond_Donors:                   2
##########                         Heavy_Atoms:                  24
##########                          Grid_Score:          -37.499271
##########                     Grid_vdw_energy:          -36.047722
##########                      Grid_es_energy:           -1.451551
##########           Internal_energy_repulsive:           10.194337

@<TRIPOS>MOLECULE
ZINC001105793963
 51 52 1 0 0
SMALL
USER_CHARGES


@<TRIPOS>ATOM
      1 C1         -7.5667    1.2727   51.4005 C.3     1  ZINC001105793963   -0.1500
      2 C2         -7.7312    0.4143   52.6564 C.3     1  ZINC001105793963   -0.0300
      3 C3         -9.0880   -0.2415   52.6424 C.2     1  ZINC001105793963    0.1800
      4 N4         -9.3852   -1.4097   52.1263 N.2     1  ZINC001105793963   -0.4800
      5 C5        -10.7013   -1.5785   52.3468 C.2     1  ZINC001105793963    0.1700
      6 C6        -11.5277   -2.7717   51.9413 C.3     1  ZINC001105793963    0.1500
      7 N7        -12.6444   -2.9362   52.8815 N.3     1  ZINC001105793963   -0.6900
      8 C8        -12.3353   -3.9559   53.8928 C.3     1  ZINC001105793963    0.0700
      9 C9        -12.2990   -3.3063   55.2775 C.3     1  ZINC001105793963   -0.1000
     10 H10       -12.9651   -2.4440   55.3083 H       1  ZINC001105793963    0.1000
     11 C11       -10.8575   -2.8841   55.6347 C.3     1  ZINC001105793963    0.1100
     12 N12       -10.7364   -3.1580   57.0856 N.am    1  ZINC001105793963   -0.6200
     13 C13       -10.1124   -2.4118   58.0185 C.2     1  ZINC001105793963    0.5300
     14 O14        -9.5640   -1.3778   57.7008 O.2     1  ZINC001105793963   -0.5300
     15 C15       -10.0963   -2.8624   59.4565 C.3     1  ZINC001105793963    0.1300
     16 H16       -11.0570   -3.3119   59.7073 H       1  ZINC001105793963    0.1100
     17 C17        -8.9833   -3.8933   59.6554 C.3     1  ZINC001105793963   -0.1600
     18 N18        -9.8548   -1.7090   60.3269 N.am    1  ZINC001105793963   -0.7200
     19 C19       -10.8894   -1.0941   60.9335 C.2     1  ZINC001105793963    0.5200
     20 C20       -10.6409    0.0911   61.8303 C.3     1  ZINC001105793963   -0.1700
     21 O21       -12.0205   -1.4947   60.7575 O.2     1  ZINC001105793963   -0.5500
     22 C22       -11.4567   -4.4382   57.2783 C.3     1  ZINC001105793963    0.1000
     23 C23       -12.6968   -4.3302   56.3609 C.3     1  ZINC001105793963   -0.1000
     24 H24       -12.9171   -5.2961   55.9064 H       1  ZINC001105793963    0.0900
     25 C25       -13.9044   -3.8295   57.1559 C.3     1  ZINC001105793963   -0.1500
     26 N26       -11.1292   -0.5240   52.9739 N.2     1  ZINC001105793963   -0.3700
     27 O27       -10.2167    0.2537   53.1586 O.3     1  ZINC001105793963    0.0800
     28 H28        -7.6565    0.6427   50.5155 H       1  ZINC001105793963    0.0600
     29 H29        -8.3408    2.0396   51.3806 H       1  ZINC001105793963    0.0600
     30 H30        -6.5854    1.7470   51.4106 H       1  ZINC001105793963    0.0800
     31 H31        -6.9570   -0.3527   52.6762 H       1  ZINC001105793963    0.1100
     32 H32        -7.6413    1.0443   53.5413 H       1  ZINC001105793963    0.1000
     33 H33       -11.9189   -2.6180   50.9357 H       1  ZINC001105793963    0.1000
     34 H34       -10.9054   -3.6666   51.9562 H       1  ZINC001105793963    0.0700
     35 H35       -12.8841   -2.0574   53.3156 H       1  ZINC001105793963    0.3500
     36 H36       -13.1025   -4.7300   53.8745 H       1  ZINC001105793963    0.0800
     37 H37       -11.3646   -4.4013   53.6748 H       1  ZINC001105793963    0.0400
     38 H38       -10.1371   -3.4797   55.0740 H       1  ZINC001105793963    0.0700
     39 H39       -10.7118   -1.8225   55.4348 H       1  ZINC001105793963    0.0900
     40 H40        -8.9715   -4.2192   60.6956 H       1  ZINC001105793963    0.0800
     41 H41        -9.1630   -4.7514   59.0078 H       1  ZINC001105793963    0.0800
     42 H42        -8.0225   -3.4437   59.4047 H       1  ZINC001105793963    0.0600
     43 H43        -8.9502   -1.3879   60.4667 H       1  ZINC001105793963    0.4100
     44 H44        -9.5720    0.3022   61.8657 H       1  ZINC001105793963    0.0800
     45 H45       -11.1700    0.9601   61.4391 H       1  ZINC001105793963    0.1000
     46 H46       -11.0005   -0.1316   62.8348 H       1  ZINC001105793963    0.1000
     47 H47       -10.8298   -5.2765   56.9743 H       1  ZINC001105793963    0.0800
     48 H48       -11.7630   -4.5491   58.3184 H       1  ZINC001105793963    0.0900
     49 H49       -13.6739   -2.8581   57.5934 H       1  ZINC001105793963    0.0600
     50 H50       -14.7628   -3.7341   56.4910 H       1  ZINC001105793963    0.0600
     51 H51       -14.1367   -4.5395   57.9495 H       1  ZINC001105793963    0.0600
@<TRIPOS>BOND
     1     1     2    1
     2     1    28    1
     3     1    29    1
     4     1    30    1
     5     2     3    1
     6     2    31    1
     7     2    32    1
     8     3    27    1
     9     3     4    2
    10     4     5    1
    11     5     6    1
    12     5    26    2
    13     6     7    1
    14     6    33    1
    15     6    34    1
    16     7     8    1
    17     7    35    1
    18     8     9    1
    19     8    36    1
    20     8    37    1
    21     9    10    1
    22     9    23    1
    23     9    11    1
    24    11    12    1
    25    11    38    1
    26    11    39    1
    27    12    13   am
    28    12    22    1
    29    13    14    2
    30    13    15    1
    31    15    16    1
    32    15    17    1
    33    15    18    1
    34    17    40    1
    35    17    41    1
    36    17    42    1
    37    18    19   am
    38    18    43    1
    39    19    20    1
    40    19    21    2
    41    20    44    1
    42    20    45    1
    43    20    46    1
    44    22    23    1
    45    22    47    1
    46    22    48    1
    47    23    24    1
    48    23    25    1
    49    25    49    1
    50    25    50    1
    51    25    51    1
    52    26    27    1
@<TRIPOS>SUBSTRUCTURE
     1 ZINC001105793963        1 TEMP              0 ****  ****    0 ROOT


##########                                Name:    ZINC000504860563
##########                DOCK_Rotatable_Bonds:                   6
##########                         Heavy_Atoms:                  25
##########                    Molecular_Weight:             370.786
##########                DOCK_Rotatable_Bonds:                   6
##########                       Formal_Charge:                0.01
##########                     HBond_Acceptors:                   9
##########                        HBond_Donors:                   0
##########                         Heavy_Atoms:                  25
##########                          Grid_Score:          -37.496704
##########                     Grid_vdw_energy:          -36.330143
##########                      Grid_es_energy:           -1.166559
##########           Internal_energy_repulsive:            9.379142

@<TRIPOS>MOLECULE
ZINC000504860563
 42 44 1 0 0
SMALL
USER_CHARGES


@<TRIPOS>ATOM
      1 O1        -10.7412   -5.3216   57.9029 O.2     1  ZINC000504860563   -0.5100
      2 C2        -10.6904   -4.1391   57.6261 C.2     1  ZINC000504860563    0.5700
      3 C3        -11.4359   -3.6202   56.4598 C.ar    1  ZINC000504860563    0.0500
      4 N4        -10.8821   -3.6572   55.2530 N.ar    1  ZINC000504860563   -0.4100
      5 C5        -11.5110   -3.2068   54.1907 C.ar    1  ZINC000504860563    0.0600
      6 C6        -12.7869   -2.6711   54.2875 C.ar    1  ZINC000504860563   -0.1000
      7 C7        -13.4070   -2.6101   55.5227 C.ar    1  ZINC000504860563   -0.1700
      8 C8        -12.7227   -3.0986   56.6334 C.ar    1  ZINC000504860563    0.1400
      9 O9        -13.2905   -3.0603   57.8647 O.3     1  ZINC000504860563   -0.2600
     10 C10       -14.3414   -3.9933   58.1238 C.3     1  ZINC000504860563   -0.0100
     11 C11       -15.2004   -3.4849   59.2833 C.3     1  ZINC000504860563    0.2800
     12 F12       -14.3890   -3.2576   60.4001 F       1  ZINC000504860563   -0.1900
     13 F13       -15.8267   -2.2905   58.9111 F       1  ZINC000504860563   -0.1900
     14 N14        -9.9587   -3.2999   58.3859 N.am    1  ZINC000504860563   -0.6000
     15 C15        -9.8972   -1.8661   58.0711 C.3     1  ZINC000504860563    0.0800
     16 C16       -10.2824   -1.0698   59.3218 C.3     1  ZINC000504860563   -0.1500
     17 C17        -9.3884   -1.4961   60.4885 C.3     1  ZINC000504860563    0.1600
     18 N18        -9.7318   -0.7130   61.6780 N.pl3   1  ZINC000504860563   -0.3600
     19 C19        -9.0070   -0.6357   62.8148 C.2     1  ZINC000504860563    0.0700
     20 C20        -9.6626    0.1872   63.6666 C.2     1  ZINC000504860563   -0.1900
     21 Cl21       -9.1489    0.6202   65.2673 Cl      1  ZINC000504860563   -0.0400
     22 C22       -10.8275    0.6276   63.0284 C.2     1  ZINC000504860563    0.0600
     23 N23       -10.8670    0.0927   61.8349 N.2     1  ZINC000504860563   -0.2800
     24 C24        -9.6003   -2.9838   60.7787 C.3     1  ZINC000504860563   -0.1400
     25 C25        -9.2124   -3.8007   59.5482 C.3     1  ZINC000504860563    0.1200
     26 H26       -11.0265   -3.2542   53.2267 H       1  ZINC000504860563    0.1700
     27 H27       -13.2918   -2.3043   53.4061 H       1  ZINC000504860563    0.1500
     28 H28       -14.3999   -2.1973   55.6228 H       1  ZINC000504860563    0.1500
     29 H29       -14.9602   -4.1002   57.2328 H       1  ZINC000504860563    0.1000
     30 H30       -13.9122   -4.9603   58.3862 H       1  ZINC000504860563    0.1000
     31 H31       -15.9566   -4.2304   59.5293 H       1  ZINC000504860563    0.1300
     32 H32        -8.8844   -1.6019   57.7672 H       1  ZINC000504860563    0.0700
     33 H33       -10.5940   -1.6389   57.2643 H       1  ZINC000504860563    0.1600
     34 H34       -10.1482   -0.0051   59.1308 H       1  ZINC000504860563    0.0900
     35 H35       -11.3250   -1.2666   59.5717 H       1  ZINC000504860563    0.0700
     36 H36        -8.3443   -1.3223   60.2282 H       1  ZINC000504860563    0.1100
     37 H37        -8.0722   -1.1404   63.0097 H       1  ZINC000504860563    0.1800
     38 H38       -11.5649    1.2963   63.4474 H       1  ZINC000504860563    0.1900
     39 H39        -8.9807   -3.2812   61.6247 H       1  ZINC000504860563    0.0900
     40 H40       -10.6493   -3.1625   61.0148 H       1  ZINC000504860563    0.0800
     41 H41        -9.4545   -4.8502   59.7151 H       1  ZINC000504860563    0.1000
     42 H42        -8.1435   -3.6954   59.3617 H       1  ZINC000504860563    0.0800
@<TRIPOS>BOND
     1     1     2    2
     2     2     3    1
     3     2    14   am
     4     3     8   ar
     5     3     4   ar
     6     4     5   ar
     7     5     6   ar
     8     5    26    1
     9     6     7   ar
    10     6    27    1
    11     7     8   ar
    12     7    28    1
    13     8     9    1
    14     9    10    1
    15    10    11    1
    16    10    29    1
    17    10    30    1
    18    11    12    1
    19    11    13    1
    20    11    31    1
    21    14    25    1
    22    14    15    1
    23    15    16    1
    24    15    32    1
    25    15    33    1
    26    16    17    1
    27    16    34    1
    28    16    35    1
    29    17    18    1
    30    17    24    1
    31    17    36    1
    32    18    23    1
    33    18    19    1
    34    19    20    2
    35    19    37    1
    36    20    21    1
    37    20    22    1
    38    22    23    2
    39    22    38    1
    40    24    25    1
    41    24    39    1
    42    24    40    1
    43    25    41    1
    44    25    42    1
@<TRIPOS>SUBSTRUCTURE
     1 ZINC000504860563        1 TEMP              0 ****  ****    0 ROOT


##########                                Name:    ZINC000482846390
##########                DOCK_Rotatable_Bonds:                   9
##########                         Heavy_Atoms:                  30
##########                    Molecular_Weight:             420.469
##########                DOCK_Rotatable_Bonds:                   9
##########                       Formal_Charge:          -0.0100011
##########                     HBond_Acceptors:                  11
##########                        HBond_Donors:                   2
##########                         Heavy_Atoms:                  30
##########                          Grid_Score:          -37.468277
##########                     Grid_vdw_energy:          -37.293243
##########                      Grid_es_energy:           -0.175035
##########           Internal_energy_repulsive:           25.899479

@<TRIPOS>MOLECULE
ZINC000482846390
 58 60 1 0 0
SMALL
USER_CHARGES


@<TRIPOS>ATOM
      1 C1         -3.6994    1.9249   51.0122 C.3     1  ZINC000482846390   -0.1000
      2 C2         -5.1979    1.8515   51.1533 C.2     1  ZINC000482846390    0.0900
      3 C3         -5.9732    2.6916   51.8774 C.2     1  ZINC000482846390   -0.2700
      4 C4         -7.3017    2.2759   51.7419 C.2     1  ZINC000482846390    0.0700
      5 C5         -8.5011    2.9276   52.3803 C.3     1  ZINC000482846390   -0.0500
      6 C6         -8.8426    2.2022   53.6834 C.3     1  ZINC000482846390    0.1500
      7 H7         -9.8252    2.5219   54.0305 H       1  ZINC000482846390    0.1000
      8 C8         -7.7928    2.5382   54.7444 C.3     1  ZINC000482846390   -0.1700
      9 N9         -8.8543    0.7561   53.4487 N.am    1  ZINC000482846390   -0.6800
     10 C10        -9.9464    0.1677   52.9218 C.2     1  ZINC000482846390    0.5100
     11 O11       -10.9193    0.8360   52.6403 O.2     1  ZINC000482846390   -0.5200
     12 C12        -9.9589   -1.3077   52.6841 C.2     1  ZINC000482846390    0.5100
     13 O13        -9.3901   -1.7714   51.7176 O.2     1  ZINC000482846390   -0.5100
     14 N14       -10.6018   -2.1232   53.5431 N.am    1  ZINC000482846390   -0.5900
     15 C15       -11.3000   -1.5751   54.7144 C.3     1  ZINC000482846390    0.0500
     16 C16       -12.7580   -2.0499   54.6824 C.3     1  ZINC000482846390    0.1000
     17 N17       -12.7739   -3.5032   54.4644 N.am    1  ZINC000482846390   -0.6000
     18 C18       -13.4176   -4.3187   55.3230 C.2     1  ZINC000482846390    0.5200
     19 O19       -13.4239   -5.5171   55.1324 O.2     1  ZINC000482846390   -0.5000
     20 C20       -14.1238   -3.7471   56.5097 C.2     1  ZINC000482846390    0.5200
     21 O21       -15.2966   -3.4456   56.4306 O.2     1  ZINC000482846390   -0.5000
     22 N22       -13.4581   -3.5664   57.6675 N.am    1  ZINC000482846390   -0.6000
     23 C23       -12.0342   -3.9186   57.7855 C.3     1  ZINC000482846390    0.0700
     24 C24       -11.2873   -2.7197   58.3809 C.3     1  ZINC000482846390    0.0500
     25 O25       -11.9413   -2.3078   59.5837 O.3     1  ZINC000482846390   -0.3700
     26 C26       -13.2844   -1.8559   59.3944 C.3     1  ZINC000482846390    0.0500
     27 C27       -14.1320   -3.0053   58.8491 C.3     1  ZINC000482846390    0.0700
     28 C28       -12.0757   -4.0514   53.2931 C.3     1  ZINC000482846390    0.0900
     29 C29       -10.6225   -3.5760   53.3221 C.3     1  ZINC000482846390    0.0900
     30 N30        -7.3234    1.2239   50.9643 N.2     1  ZINC000482846390   -0.2800
     31 N31        -6.0079    0.9397   50.5756 N.pl3   1  ZINC000482846390   -0.4700
     32 H32        -3.4451    2.5554   50.1602 H       1  ZINC000482846390    0.0800
     33 H33        -3.2693    2.3491   51.9194 H       1  ZINC000482846390    0.0900
     34 H34        -3.2998    0.9230   50.8548 H       1  ZINC000482846390    0.0700
     35 H35        -5.6271    3.5341   52.4577 H       1  ZINC000482846390    0.1500
     36 H36        -8.2759    3.9724   52.5945 H       1  ZINC000482846390    0.0900
     37 H37        -9.3505    2.8713   51.6997 H       1  ZINC000482846390    0.1100
     38 H38        -7.7841    3.6140   54.9191 H       1  ZINC000482846390    0.0700
     39 H39        -8.0361    2.0213   55.6727 H       1  ZINC000482846390    0.0700
     40 H40        -6.8102    2.2185   54.3974 H       1  ZINC000482846390    0.0600
     41 H41        -8.0761    0.2222   53.6726 H       1  ZINC000482846390    0.4200
     42 H42       -10.8195   -1.9303   55.6260 H       1  ZINC000482846390    0.0800
     43 H43       -11.2692   -0.4860   54.6822 H       1  ZINC000482846390    0.1600
     44 H44       -13.2394   -1.8173   55.6323 H       1  ZINC000482846390    0.1100
     45 H45       -13.2871   -1.5523   53.8698 H       1  ZINC000482846390    0.0800
     46 H46       -11.9229   -4.7827   58.4406 H       1  ZINC000482846390    0.0900
     47 H47       -11.6304   -4.1501   56.7999 H       1  ZINC000482846390    0.0900
     48 H48       -10.2597   -3.0056   58.6049 H       1  ZINC000482846390    0.1100
     49 H49       -11.2895   -1.8974   57.6655 H       1  ZINC000482846390    0.0600
     50 H50       -13.6933   -1.5204   60.3474 H       1  ZINC000482846390    0.1100
     51 H51       -13.2938   -1.0305   58.6825 H       1  ZINC000482846390    0.0600
     52 H52       -15.1180   -2.6339   58.5696 H       1  ZINC000482846390    0.1100
     53 H53       -14.2331   -3.7798   59.6096 H       1  ZINC000482846390    0.0800
     54 H54       -12.1066   -5.1405   53.3254 H       1  ZINC000482846390    0.0900
     55 H55       -12.5563   -3.6962   52.3815 H       1  ZINC000482846390    0.0900
     56 H56       -10.1423   -3.8093   52.3716 H       1  ZINC000482846390    0.1100
     57 H57       -10.0914   -4.0720   54.1345 H       1  ZINC000482846390    0.0800
     58 H58        -5.7279    0.2124   49.9980 H       1  ZINC000482846390    0.4400
@<TRIPOS>BOND
     1     1     2    1
     2     1    32    1
     3     1    33    1
     4     1    34    1
     5     2    31    1
     6     2     3    2
     7     3     4    1
     8     3    35    1
     9     4     5    1
    10     4    30    2
    11     5     6    1
    12     5    36    1
    13     5    37    1
    14     6     7    1
    15     6     8    1
    16     6     9    1
    17     8    38    1
    18     8    39    1
    19     8    40    1
    20     9    10   am
    21     9    41    1
    22    10    11    2
    23    10    12    1
    24    12    13    2
    25    12    14   am
    26    14    29    1
    27    14    15    1
    28    15    16    1
    29    15    42    1
    30    15    43    1
    31    16    17    1
    32    16    44    1
    33    16    45    1
    34    17    18   am
    35    17    28    1
    36    18    19    2
    37    18    20    1
    38    20    21    2
    39    20    22   am
    40    22    27    1
    41    22    23    1
    42    23    24    1
    43    23    46    1
    44    23    47    1
    45    24    25    1
    46    24    48    1
    47    24    49    1
    48    25    26    1
    49    26    27    1
    50    26    50    1
    51    26    51    1
    52    27    52    1
    53    27    53    1
    54    28    29    1
    55    28    54    1
    56    28    55    1
    57    29    56    1
    58    29    57    1
    59    30    31    1
    60    31    58    1
@<TRIPOS>SUBSTRUCTURE
     1 ZINC000482846390        1 TEMP              0 ****  ****    0 ROOT


##########                                Name:    ZINC001573443776
##########                DOCK_Rotatable_Bonds:                   8
##########                         Heavy_Atoms:                  28
##########                    Molecular_Weight:             386.457
##########                DOCK_Rotatable_Bonds:                   8
##########                       Formal_Charge:          0.00999954
##########                     HBond_Acceptors:                  10
##########                        HBond_Donors:                   3
##########                         Heavy_Atoms:                  28
##########                          Grid_Score:          -37.462231
##########                     Grid_vdw_energy:          -35.435986
##########                      Grid_es_energy:           -2.026245
##########           Internal_energy_repulsive:           37.236645

@<TRIPOS>MOLECULE
ZINC001573443776
 54 56 1 0 0
SMALL
USER_CHARGES


@<TRIPOS>ATOM
      1 C1        -13.6450    0.3253   48.0664 C.3     1  ZINC001573443776   -0.1800
      2 C2        -14.1069   -0.7899   48.9686 C.2     1  ZINC001573443776    0.5100
      3 O3        -14.5136   -1.8277   48.4905 O.2     1  ZINC001573443776   -0.5400
      4 N4        -14.0680   -0.6340   50.3067 N.am    1  ZINC001573443776   -0.6100
      5 C5        -13.5779    0.6174   50.9006 C.3     1  ZINC001573443776    0.1100
      6 C6        -12.4710    0.2855   51.9064 C.3     1  ZINC001573443776   -0.1300
      7 C7        -12.9989   -0.7286   52.9237 C.3     1  ZINC001573443776   -0.1000
      8 C8        -13.3977   -2.0177   52.2017 C.3     1  ZINC001573443776   -0.1200
      9 H9        -12.5342   -2.4203   51.6722 H       1  ZINC001573443776    0.1000
     10 C10       -13.8863   -3.0274   53.2081 C.2     1  ZINC001573443776    0.5200
     11 O11       -15.0570   -3.0512   53.5239 O.2     1  ZINC001573443776   -0.5300
     12 N12       -13.0221   -3.9038   53.7573 N.am    1  ZINC001573443776   -0.7300
     13 C13       -13.4975   -4.8865   54.7344 C.3     1  ZINC001573443776    0.1100
     14 C14       -13.3623   -4.3095   56.1450 C.3     1  ZINC001573443776    0.1400
     15 H15       -13.9930   -3.4254   56.2378 H       1  ZINC001573443776    0.0900
     16 C16       -13.8005   -5.3583   57.1692 C.3     1  ZINC001573443776   -0.1700
     17 N17       -11.9658   -3.9411   56.3902 N.pl3   1  ZINC001573443776   -0.7200
     18 C18       -11.6377   -3.1516   57.4852 C.ar    1  ZINC001573443776    0.4300
     19 C19       -12.2260   -1.8984   57.6296 C.ar    1  ZINC001573443776   -0.2500
     20 C20       -11.8948   -1.1199   58.7211 C.ar    1  ZINC001573443776    0.0100
     21 C21       -10.9742   -1.6262   59.6448 C.ar    1  ZINC001573443776   -0.1400
     22 C22       -10.5860   -0.8282   60.8346 C.2     1  ZINC001573443776    0.2400
     23 N23        -9.6519    0.1005   60.8893 N.2     1  ZINC001573443776   -0.3000
     24 N24        -9.6203    0.5575   62.0938 N.pl3   1  ZINC001573443776   -0.2300
     25 N25       -10.5045   -0.0518   62.8039 N.2     1  ZINC001573443776   -0.0500
     26 N26       -11.1210   -0.9074   62.0613 N.2     1  ZINC001573443776   -0.2700
     27 C27       -10.4276   -2.8884   59.4332 C.ar    1  ZINC001573443776    0.2300
     28 C28        -9.4348   -3.4460   60.4203 C.3     1  ZINC001573443776   -0.1200
     29 N29       -10.7730   -3.6032   58.3813 N.ar    1  ZINC001573443776   -0.5400
     30 C30       -14.5205   -1.7098   51.1992 C.3     1  ZINC001573443776    0.1200
     31 H31       -14.5022    0.9276   47.7652 H       1  ZINC001573443776    0.0900
     32 H32       -12.9303    0.9518   48.5997 H       1  ZINC001573443776    0.0800
     33 H33       -13.1688   -0.0969   47.1815 H       1  ZINC001573443776    0.1000
     34 H34       -13.1788    1.2618   50.1174 H       1  ZINC001573443776    0.1000
     35 H35       -14.3963    1.1242   51.4121 H       1  ZINC001573443776    0.0700
     36 H36       -11.6161   -0.1388   51.3796 H       1  ZINC001573443776    0.0700
     37 H37       -12.1652    1.1947   52.4240 H       1  ZINC001573443776    0.0800
     38 H38       -12.2209   -0.9479   53.6551 H       1  ZINC001573443776    0.0800
     39 H39       -13.8687   -0.3133   53.4325 H       1  ZINC001573443776    0.0700
     40 H40       -12.0856   -3.8841   53.5056 H       1  ZINC001573443776    0.4000
     41 H41       -14.5436   -5.1197   54.5359 H       1  ZINC001573443776    0.0900
     42 H42       -12.9012   -5.7956   54.6550 H       1  ZINC001573443776    0.0800
     43 H43       -14.8395   -5.6324   56.9867 H       1  ZINC001573443776    0.0700
     44 H44       -13.1698   -6.2425   57.0764 H       1  ZINC001573443776    0.0700
     45 H45       -13.7043   -4.9473   58.1741 H       1  ZINC001573443776    0.0700
     46 H46       -11.2702   -4.2484   55.7880 H       1  ZINC001573443776    0.4100
     47 H47       -12.9329   -1.5390   56.8964 H       1  ZINC001573443776    0.1400
     48 H48       -12.3357   -0.1436   58.8581 H       1  ZINC001573443776    0.1400
     49 H49        -9.0237    1.2517   62.4150 H       1  ZINC001573443776    0.4800
     50 H50        -9.9644   -4.0032   61.1931 H       1  ZINC001573443776    0.0800
     51 H51        -8.7425   -4.1105   59.9033 H       1  ZINC001573443776    0.0800
     52 H52        -8.8793   -2.6278   60.8785 H       1  ZINC001573443776    0.1100
     53 H53       -15.4143   -1.3939   51.7373 H       1  ZINC001573443776    0.0800
     54 H54       -14.7409   -2.6014   50.6122 H       1  ZINC001573443776    0.0900
@<TRIPOS>BOND
     1     1     2    1
     2     1    31    1
     3     1    32    1
     4     1    33    1
     5     2     3    2
     6     2     4   am
     7     4    30    1
     8     4     5    1
     9     5     6    1
    10     5    34    1
    11     5    35    1
    12     6     7    1
    13     6    36    1
    14     6    37    1
    15     7     8    1
    16     7    38    1
    17     7    39    1
    18     8     9    1
    19     8    10    1
    20     8    30    1
    21    10    11    2
    22    10    12   am
    23    12    13    1
    24    12    40    1
    25    13    14    1
    26    13    41    1
    27    13    42    1
    28    14    15    1
    29    14    16    1
    30    14    17    1
    31    16    43    1
    32    16    44    1
    33    16    45    1
    34    17    18    1
    35    17    46    1
    36    18    29   ar
    37    18    19   ar
    38    19    20   ar
    39    19    47    1
    40    20    21   ar
    41    20    48    1
    42    21    22    1
    43    21    27   ar
    44    22    26    1
    45    22    23    2
    46    23    24    1
    47    24    25    1
    48    24    49    1
    49    25    26    2
    50    27    28    1
    51    27    29   ar
    52    28    50    1
    53    28    51    1
    54    28    52    1
    55    30    53    1
    56    30    54    1
@<TRIPOS>SUBSTRUCTURE
     1 ZINC001573443776        1 TEMP              0 ****  ****    0 ROOT


##########                                Name:    ZINC001105194920
##########                DOCK_Rotatable_Bonds:                   8
##########                         Heavy_Atoms:                  25
##########                    Molecular_Weight:             346.392
##########                DOCK_Rotatable_Bonds:                   8
##########                       Formal_Charge:          -0.0100007
##########                     HBond_Acceptors:                  10
##########                        HBond_Donors:                   3
##########                         Heavy_Atoms:                  25
##########                          Grid_Score:          -37.417614
##########                     Grid_vdw_energy:          -35.731468
##########                      Grid_es_energy:           -1.686147
##########           Internal_energy_repulsive:           10.495609

@<TRIPOS>MOLECULE
ZINC001105194920
 47 49 1 0 0
SMALL
USER_CHARGES


@<TRIPOS>ATOM
      1 C1        -10.1207   -1.9751   52.1032 C.3     1  ZINC001105194920    0.0300
      2 O2        -10.1975   -3.1558   52.9046 O.3     1  ZINC001105194920   -0.3900
      3 C3        -11.5031   -3.7336   52.9647 C.3     1  ZINC001105194920    0.0700
      4 C4        -12.2397   -3.2022   54.1959 C.3     1  ZINC001105194920    0.0900
      5 H5        -11.5291   -2.7108   54.8604 H       1  ZINC001105194920    0.0900
      6 C6        -13.3070   -2.1973   53.7574 C.3     1  ZINC001105194920   -0.1800
      7 N7        -12.8801   -4.3191   54.9034 N.3     1  ZINC001105194920   -0.6800
      8 C8        -13.1869   -3.9552   56.2932 C.3     1  ZINC001105194920    0.1400
      9 C9        -11.9496   -4.1141   57.1388 C.2     1  ZINC001105194920   -0.0200
     10 C10       -11.3119   -3.1418   57.8317 C.2     1  ZINC001105194920   -0.0200
     11 N11       -10.2600   -3.7391   58.4380 N.pl3   1  ZINC001105194920   -0.2800
     12 C12        -9.2782   -3.0781   59.3014 C.3     1  ZINC001105194920    0.1000
     13 C13        -9.0927   -1.5808   58.9959 C.3     1  ZINC001105194920    0.1100
     14 N14       -10.1580   -1.3486   59.9905 N.am    1  ZINC001105194920   -0.6300
     15 C15       -11.0530   -0.3636   60.2034 C.2     1  ZINC001105194920    0.6200
     16 O16       -11.0770    0.6050   59.4691 O.2     1  ZINC001105194920   -0.5400
     17 C17       -12.0046   -0.4610   61.3292 C.ar    1  ZINC001105194920   -0.0600
     18 N18       -12.8844   -1.4572   61.3764 N.ar    1  ZINC001105194920   -0.3700
     19 C19       -13.7317   -1.5410   62.3818 C.ar    1  ZINC001105194920   -0.0200
     20 C20       -13.7126   -0.5937   63.3955 C.ar    1  ZINC001105194920    0.1500
     21 N21       -12.8451    0.4014   63.3621 N.ar    1  ZINC001105194920   -0.5100
     22 C22       -11.9810    0.4950   62.3581 C.ar    1  ZINC001105194920    0.4200
     23 N23       -11.0706    1.5351   62.3195 N.pl3   1  ZINC001105194920   -0.8100
     24 C24        -9.8497   -2.6280   60.6582 C.3     1  ZINC001105194920    0.1100
     25 N25       -10.2703   -4.9878   58.1260 N.2     1  ZINC001105194920   -0.0800
     26 N26       -11.2689   -5.2448   57.3569 N.2     1  ZINC001105194920   -0.2600
     27 H27       -10.7899   -1.2164   52.5090 H       1  ZINC001105194920    0.0400
     28 H28        -9.0981   -1.5981   52.1087 H       1  ZINC001105194920    0.0800
     29 H29       -10.4158   -2.2103   51.0806 H       1  ZINC001105194920    0.0400
     30 H30       -12.0596   -3.4683   52.0657 H       1  ZINC001105194920    0.0600
     31 H31       -11.4176   -4.8181   53.0324 H       1  ZINC001105194920    0.0500
     32 H32       -14.0175   -2.6889   53.0928 H       1  ZINC001105194920    0.0700
     33 H33       -13.8318   -1.8187   54.6345 H       1  ZINC001105194920    0.0500
     34 H34       -12.8318   -1.3686   53.2325 H       1  ZINC001105194920    0.0600
     35 H35       -13.7099   -4.6262   54.4184 H       1  ZINC001105194920    0.3500
     36 H36       -13.5228   -2.9190   56.3317 H       1  ZINC001105194920    0.0900
     37 H37       -13.9733   -4.6066   56.6741 H       1  ZINC001105194920    0.0500
     38 H38       -11.5871   -2.0990   57.8887 H       1  ZINC001105194920    0.1800
     39 H39        -8.3421   -3.6308   59.3811 H       1  ZINC001105194920    0.1500
     40 H40        -8.1203   -1.1888   59.2939 H       1  ZINC001105194920    0.1200
     41 H41        -9.3719   -1.3018   57.9798 H       1  ZINC001105194920    0.1000
     42 H42       -14.4451   -2.3510   62.4169 H       1  ZINC001105194920    0.1800
     43 H43       -14.4110   -0.6704   64.2158 H       1  ZINC001105194920    0.1800
     44 H44       -11.0096    2.1540   63.0637 H       1  ZINC001105194920    0.4000
     45 H45       -10.4930    1.6457   61.5480 H       1  ZINC001105194920    0.4300
     46 H46       -10.7333   -3.1853   60.9693 H       1  ZINC001105194920    0.1100
     47 H47        -9.0997   -2.5436   61.4446 H       1  ZINC001105194920    0.1200
@<TRIPOS>BOND
     1     1     2    1
     2     1    27    1
     3     1    28    1
     4     1    29    1
     5     2     3    1
     6     3     4    1
     7     3    30    1
     8     3    31    1
     9     4     5    1
    10     4     6    1
    11     4     7    1
    12     6    32    1
    13     6    33    1
    14     6    34    1
    15     7     8    1
    16     7    35    1
    17     8     9    1
    18     8    36    1
    19     8    37    1
    20     9    26    1
    21     9    10    2
    22    10    11    1
    23    10    38    1
    24    11    12    1
    25    11    25    1
    26    12    24    1
    27    12    13    1
    28    12    39    1
    29    13    14    1
    30    13    40    1
    31    13    41    1
    32    14    15   am
    33    14    24    1
    34    15    16    2
    35    15    17    1
    36    17    22   ar
    37    17    18   ar
    38    18    19   ar
    39    19    20   ar
    40    19    42    1
    41    20    21   ar
    42    20    43    1
    43    21    22   ar
    44    22    23    1
    45    23    44    1
    46    23    45    1
    47    24    46    1
    48    24    47    1
    49    25    26    2
@<TRIPOS>SUBSTRUCTURE
     1 ZINC001105194920        1 TEMP              0 ****  ****    0 ROOT


##########                                Name:    ZINC001490207225
##########                DOCK_Rotatable_Bonds:                   7
##########                         Heavy_Atoms:                  24
##########                    Molecular_Weight:             334.378
##########                DOCK_Rotatable_Bonds:                   7
##########                       Formal_Charge:           -0.010001
##########                     HBond_Acceptors:                   9
##########                        HBond_Donors:                   3
##########                         Heavy_Atoms:                  24
##########                          Grid_Score:          -37.390308
##########                     Grid_vdw_energy:          -34.380093
##########                      Grid_es_energy:           -3.010214
##########           Internal_energy_repulsive:            5.184358

@<TRIPOS>MOLECULE
ZINC001490207225
 46 48 1 0 0
SMALL
USER_CHARGES


@<TRIPOS>ATOM
      1 C1        -12.7242   -2.8189   53.3273 C.3     1  ZINC001490207225    0.0900
      2 N2        -12.5704   -3.4916   54.6196 N.pl3   1  ZINC001490207225   -0.3600
      3 C3        -11.4484   -3.5288   55.3560 C.2     1  ZINC001490207225    0.1300
      4 C4        -11.7254   -4.2587   56.4945 C.2     1  ZINC001490207225   -0.3000
      5 C5        -10.7873   -4.5588   57.5915 C.2     1  ZINC001490207225    0.6200
      6 O6        -10.2528   -5.6494   57.6533 O.2     1  ZINC001490207225   -0.5400
      7 N7        -10.5221   -3.6245   58.5260 N.am    1  ZINC001490207225   -0.6200
      8 C8         -9.6110   -3.7622   59.6739 C.3     1  ZINC001490207225    0.1100
      9 C9        -10.1928   -2.8885   60.7975 C.3     1  ZINC001490207225   -0.1100
     10 H10       -10.6944   -3.4835   61.5608 H       1  ZINC001490207225    0.1000
     11 C11        -9.0681   -2.0137   61.3900 C.3     1  ZINC001490207225    0.1000
     12 N12        -9.6748   -0.6707   61.5384 N.am    1  ZINC001490207225   -0.6200
     13 C13        -9.5143    0.2015   62.5532 C.2     1  ZINC001490207225    0.5300
     14 O14       -10.0849    1.2715   62.5291 O.2     1  ZINC001490207225   -0.5300
     15 C15        -8.6260   -0.1526   63.7178 C.3     1  ZINC001490207225    0.1200
     16 N16        -8.1535    1.0752   64.3627 N.am    1  ZINC001490207225   -0.7400
     17 C17        -7.9822    1.1114   65.6990 C.2     1  ZINC001490207225    0.7100
     18 N18        -7.5460    2.2403   66.2921 N.am    1  ZINC001490207225   -0.8600
     19 O19        -8.2210    0.1257   66.3696 O.2     1  ZINC001490207225   -0.5900
     20 C20       -10.4979   -0.5040   60.3184 C.3     1  ZINC001490207225    0.1100
     21 C21       -11.1621   -1.9060   60.0902 C.3     1  ZINC001490207225   -0.0800
     22 C22       -12.5898   -1.9619   60.6376 C.3     1  ZINC001490207225   -0.1300
     23 C23       -11.0820   -2.2649   58.5944 C.3     1  ZINC001490207225    0.1000
     24 C24       -13.0763   -4.6641   56.4118 C.2     1  ZINC001490207225    0.0700
     25 N25       -13.5699   -4.1985   55.2975 N.2     1  ZINC001490207225   -0.2900
     26 H26       -13.0453   -1.7900   53.4892 H       1  ZINC001490207225    0.0800
     27 H27       -11.7704   -2.8230   52.7998 H       1  ZINC001490207225    0.0900
     28 H28       -13.4712   -3.3433   52.7315 H       1  ZINC001490207225    0.1000
     29 H29       -10.5028   -3.0720   55.1039 H       1  ZINC001490207225    0.1900
     30 H30        -9.5674   -4.8032   59.9941 H       1  ZINC001490207225    0.0900
     31 H31        -8.6147   -3.4110   59.4049 H       1  ZINC001490207225    0.0800
     32 H32        -8.7584   -2.3998   62.3611 H       1  ZINC001490207225    0.0900
     33 H33        -8.2189   -1.9735   60.7078 H       1  ZINC001490207225    0.0900
     34 H34        -9.1895   -0.7471   64.4370 H       1  ZINC001490207225    0.1000
     35 H35        -7.7714   -0.7277   63.3612 H       1  ZINC001490207225    0.1000
     36 H36        -7.9641    1.8619   63.8278 H       1  ZINC001490207225    0.4100
     37 H37        -7.4216    2.2660   67.2538 H       1  ZINC001490207225    0.4000
     38 H38        -7.3566    3.0271   65.7573 H       1  ZINC001490207225    0.4200
     39 H39       -11.2679    0.2503   60.4799 H       1  ZINC001490207225    0.0900
     40 H40        -9.8694   -0.2307   59.4707 H       1  ZINC001490207225    0.0800
     41 H41       -13.2051   -1.2233   60.1236 H       1  ZINC001490207225    0.0700
     42 H42       -13.0033   -2.9569   60.4733 H       1  ZINC001490207225    0.0600
     43 H43       -12.5781   -1.7450   61.7057 H       1  ZINC001490207225    0.0600
     44 H44       -10.4138   -1.5747   58.0794 H       1  ZINC001490207225    0.0800
     45 H45       -12.0754   -2.2282   58.1472 H       1  ZINC001490207225    0.0900
     46 H46       -13.6084   -5.2525   57.1446 H       1  ZINC001490207225    0.2000
@<TRIPOS>BOND
     1     1     2    1
     2     1    26    1
     3     1    27    1
     4     1    28    1
     5     2    25    1
     6     2     3    1
     7     3     4    2
     8     3    29    1
     9     4     5    1
    10     4    24    1
    11     5     6    2
    12     5     7   am
    13     7    23    1
    14     7     8    1
    15     8     9    1
    16     8    30    1
    17     8    31    1
    18     9    10    1
    19     9    21    1
    20     9    11    1
    21    11    12    1
    22    11    32    1
    23    11    33    1
    24    12    13   am
    25    12    20    1
    26    13    14    2
    27    13    15    1
    28    15    16    1
    29    15    34    1
    30    15    35    1
    31    16    17   am
    32    16    36    1
    33    17    18   am
    34    17    19    2
    35    18    37    1
    36    18    38    1
    37    20    21    1
    38    20    39    1
    39    20    40    1
    40    21    22    1
    41    21    23    1
    42    22    41    1
    43    22    42    1
    44    22    43    1
    45    23    44    1
    46    23    45    1
    47    24    25    2
    48    24    46    1
@<TRIPOS>SUBSTRUCTURE
     1 ZINC001490207225        1 TEMP              0 ****  ****    0 ROOT


##########                                Name:    ZINC000533131987
##########                DOCK_Rotatable_Bonds:                  11
##########                         Heavy_Atoms:                  30
##########                    Molecular_Weight:             419.403
##########                DOCK_Rotatable_Bonds:                  11
##########                       Formal_Charge:                0.01
##########                     HBond_Acceptors:                   9
##########                        HBond_Donors:                   3
##########                         Heavy_Atoms:                  30
##########                          Grid_Score:          -37.371994
##########                     Grid_vdw_energy:          -37.014324
##########                      Grid_es_energy:           -0.357668
##########           Internal_energy_repulsive:           26.170523

@<TRIPOS>MOLECULE
ZINC000533131987
 50 52 1 0 0
SMALL
USER_CHARGES


@<TRIPOS>ATOM
      1 O1         -8.1925    0.5432   57.3361 O.2     1  ZINC000533131987   -0.5700
      2 C2         -9.1876    0.3400   56.6676 C.2     1  ZINC000533131987    0.7100
      3 N3         -9.4057    1.0581   55.5482 N.am    1  ZINC000533131987   -0.7400
      4 C4         -8.4469    2.0877   55.1400 C.3     1  ZINC000533131987    0.1400
      5 C5         -8.1997    1.9861   53.6336 C.3     1  ZINC000533131987   -0.0900
      6 H6         -7.9019    0.9681   53.3821 H       1  ZINC000533131987    0.0900
      7 C7         -9.4832    2.3427   52.8810 C.3     1  ZINC000533131987    0.0800
      8 O8        -10.2899    1.1723   52.7339 O.3     1  ZINC000533131987   -0.5600
      9 C9         -7.0870    2.9568   53.2326 C.3     1  ZINC000533131987   -0.0900
     10 C10        -6.2004    2.3064   52.2021 C.ar    1  ZINC000533131987    0.0000
     11 C11        -6.7337    1.4015   51.3037 C.ar    1  ZINC000533131987   -0.1100
     12 C12        -5.9203    0.8049   50.3583 C.ar    1  ZINC000533131987   -0.0800
     13 C13        -4.5739    1.1136   50.3112 C.ar    1  ZINC000533131987   -0.1300
     14 C14        -4.0406    2.0194   51.2094 C.ar    1  ZINC000533131987   -0.0700
     15 C15        -4.8546    2.6191   52.1517 C.ar    1  ZINC000533131987   -0.1700
     16 C16        -4.2732    3.6065   53.1306 C.3     1  ZINC000533131987    0.5100
     17 F17        -5.0214    4.7881   53.1011 F       1  ZINC000533131987   -0.1800
     18 F18        -4.3107    3.0629   54.4192 F       1  ZINC000533131987   -0.1700
     19 F19        -2.9476    3.8849   52.7804 F       1  ZINC000533131987   -0.1800
     20 N20       -10.0697   -0.6073   57.0431 N.am    1  ZINC000533131987   -0.6900
     21 C21        -9.8432   -1.3532   58.2057 C.ar    1  ZINC000533131987    0.1600
     22 C22        -9.7218   -2.7353   58.1316 C.ar    1  ZINC000533131987   -0.1000
     23 C23        -9.4981   -3.4767   59.2770 C.ar    1  ZINC000533131987   -0.1000
     24 C24        -9.3938   -2.8488   60.5012 C.ar    1  ZINC000533131987   -0.1000
     25 C25        -9.5144   -1.4605   60.5862 C.ar    1  ZINC000533131987    0.0000
     26 C26        -9.4026   -0.7851   61.8966 C.2     1  ZINC000533131987    0.2300
     27 N27        -9.9926    0.3378   62.2326 N.2     1  ZINC000533131987   -0.4700
     28 C28        -9.6567    0.6373   63.4964 C.2     1  ZINC000533131987   -0.0400
     29 C29        -8.8375   -0.3309   63.9457 C.2     1  ZINC000533131987   -0.0700
     30 O30        -8.6842   -1.2214   62.9457 O.3     1  ZINC000533131987   -0.2000
     31 C31        -9.7343   -0.7123   59.4301 C.ar    1  ZINC000533131987   -0.1000
     32 H32       -10.1976    0.8932   55.0128 H       1  ZINC000533131987    0.4000
     33 H33        -8.8489    3.0729   55.3766 H       1  ZINC000533131987    0.0700
     34 H34        -7.5074    1.9412   55.6731 H       1  ZINC000533131987    0.0800
     35 H35       -10.0357    3.0966   53.4419 H       1  ZINC000533131987    0.0400
     36 H36        -9.2299    2.7355   51.8964 H       1  ZINC000533131987    0.0600
     37 H37       -10.3915    0.6597   53.5477 H       1  ZINC000533131987    0.3800
     38 H38        -7.5276    3.8615   52.8139 H       1  ZINC000533131987    0.0800
     39 H39        -6.4951    3.2138   54.1110 H       1  ZINC000533131987    0.0900
     40 H40        -7.7859    1.1604   51.3404 H       1  ZINC000533131987    0.1300
     41 H41        -6.3370    0.0973   49.6567 H       1  ZINC000533131987    0.1300
     42 H42        -3.9383    0.6470   49.5732 H       1  ZINC000533131987    0.1300
     43 H43        -2.9885    2.2604   51.1728 H       1  ZINC000533131987    0.1300
     44 H44       -10.8616   -0.7722   56.5077 H       1  ZINC000533131987    0.4100
     45 H45        -9.8028   -3.2323   57.1761 H       1  ZINC000533131987    0.1500
     46 H46        -9.4049   -4.5507   59.2133 H       1  ZINC000533131987    0.1400
     47 H47        -9.2194   -3.4314   61.3937 H       1  ZINC000533131987    0.1300
     48 H48        -9.9854    1.5019   64.0540 H       1  ZINC000533131987    0.1900
     49 H49        -8.3893   -0.3863   64.9267 H       1  ZINC000533131987    0.2200
     50 H50        -9.8284    0.3619   59.4896 H       1  ZINC000533131987    0.1400
@<TRIPOS>BOND
     1     1     2    2
     2     2     3   am
     3     2    20   am
     4     3     4    1
     5     3    32    1
     6     4     5    1
     7     4    33    1
     8     4    34    1
     9     5     6    1
    10     5     7    1
    11     5     9    1
    12     7     8    1
    13     7    35    1
    14     7    36    1
    15     8    37    1
    16     9    10    1
    17     9    38    1
    18     9    39    1
    19    10    15   ar
    20    10    11   ar
    21    11    12   ar
    22    11    40    1
    23    12    13   ar
    24    12    41    1
    25    13    14   ar
    26    13    42    1
    27    14    15   ar
    28    14    43    1
    29    15    16    1
    30    16    17    1
    31    16    18    1
    32    16    19    1
    33    20    21    1
    34    20    44    1
    35    21    31   ar
    36    21    22   ar
    37    22    23   ar
    38    22    45    1
    39    23    24   ar
    40    23    46    1
    41    24    25   ar
    42    24    47    1
    43    25    26    1
    44    25    31   ar
    45    26    30    1
    46    26    27    2
    47    27    28    1
    48    28    29    2
    49    28    48    1
    50    29    30    1
    51    29    49    1
    52    31    50    1
@<TRIPOS>SUBSTRUCTURE
     1 ZINC000533131987        1 TEMP              0 ****  ****    0 ROOT


##########                                Name:    ZINC000523863446
##########                DOCK_Rotatable_Bonds:                  10
##########                         Heavy_Atoms:                  29
##########                    Molecular_Weight:             396.533
##########                DOCK_Rotatable_Bonds:                  10
##########                       Formal_Charge:          -0.0200008
##########                     HBond_Acceptors:                   6
##########                        HBond_Donors:                   1
##########                         Heavy_Atoms:                  29
##########                          Grid_Score:          -37.349064
##########                     Grid_vdw_energy:          -36.674904
##########                      Grid_es_energy:           -0.674159
##########           Internal_energy_repulsive:           16.138041

@<TRIPOS>MOLECULE
ZINC000523863446
 61 63 1 0 0
SMALL
USER_CHARGES


@<TRIPOS>ATOM
      1 C1         -9.9189    2.8466   51.7100 C.3     1  ZINC000523863446   -0.1700
      2 C2         -8.8789    2.3191   52.7006 C.3     1  ZINC000523863446    0.1500
      3 H3         -8.0505    3.0245   52.7676 H       1  ZINC000523863446    0.1300
      4 C4         -9.5137    2.1593   54.0580 C.2     1  ZINC000523863446    0.5100
      5 O5        -10.7067    1.9615   54.1499 O.2     1  ZINC000523863446   -0.5100
      6 N6         -8.7556    2.2364   55.1696 N.am    1  ZINC000523863446   -0.6000
      7 C7         -7.3149    2.4773   55.0586 C.3     1  ZINC000523863446    0.0700
      8 C8         -9.3726    2.0794   56.4892 C.3     1  ZINC000523863446    0.1000
      9 C9         -9.4832    0.6134   56.8206 C.2     1  ZINC000523863446    0.5000
     10 O10        -8.4921   -0.0855   56.8174 O.2     1  ZINC000523863446   -0.5200
     11 N11       -10.6836    0.0791   57.1204 N.am    1  ZINC000523863446   -0.7200
     12 C12       -10.7910   -1.3456   57.4443 C.3     1  ZINC000523863446    0.1900
     13 H13       -10.2813   -1.9315   56.6794 H       1  ZINC000523863446    0.1000
     14 C14       -12.2664   -1.7472   57.4956 C.3     1  ZINC000523863446   -0.1200
     15 C15       -12.4766   -3.0225   56.6770 C.3     1  ZINC000523863446   -0.0900
     16 C16       -13.4801   -3.9286   57.3933 C.3     1  ZINC000523863446   -0.1200
     17 C17       -13.6904   -5.2040   56.5746 C.3     1  ZINC000523863446   -0.1200
     18 C18       -14.2307   -4.8385   55.1906 C.3     1  ZINC000523863446   -0.1200
     19 C19       -13.2273   -3.9323   54.4744 C.3     1  ZINC000523863446   -0.1200
     20 C20       -13.0170   -2.6570   55.2930 C.3     1  ZINC000523863446   -0.1100
     21 C21       -10.1527   -1.6055   58.7846 C.ar    1  ZINC000523863446   -0.0900
     22 C22       -10.3065   -0.6934   59.8119 C.ar    1  ZINC000523863446   -0.1100
     23 C23        -9.7210   -0.9319   61.0412 C.ar    1  ZINC000523863446   -0.1200
     24 C24        -8.9822   -2.0826   61.2433 C.ar    1  ZINC000523863446   -0.1200
     25 C25        -8.8292   -2.9951   60.2163 C.ar    1  ZINC000523863446   -0.1200
     26 C26        -9.4182   -2.7587   58.9883 C.ar    1  ZINC000523863446   -0.1000
     27 N27        -8.3791    1.0216   52.2393 N.pl3   1  ZINC000523863446   -0.3600
     28 C28        -7.2729    0.8163   51.4940 C.2     1  ZINC000523863446    0.0600
     29 C29        -7.1598   -0.5155   51.2822 C.2     1  ZINC000523863446   -0.2700
     30 C30        -8.2336   -1.1455   51.9195 C.2     1  ZINC000523863446    0.0500
     31 N31        -8.9618   -0.2255   52.4987 N.2     1  ZINC000523863446   -0.2900
     32 H32       -10.7472    2.1412   51.6429 H       1  ZINC000523863446    0.0700
     33 H33       -10.2906    3.8120   52.0532 H       1  ZINC000523863446    0.1000
     34 H34        -9.4598    2.9622   50.7283 H       1  ZINC000523863446    0.0800
     35 H35        -7.1236    3.5503   55.0740 H       1  ZINC000523863446    0.0700
     36 H36        -6.8019    2.0047   55.8962 H       1  ZINC000523863446    0.0800
     37 H37        -6.9472    2.0561   54.1230 H       1  ZINC000523863446    0.0800
     38 H38        -8.7572    2.5760   57.2394 H       1  ZINC000523863446    0.1100
     39 H39       -10.3668    2.5261   56.4809 H       1  ZINC000523863446    0.1100
     40 H40       -11.4765    0.6379   57.1217 H       1  ZINC000523863446    0.4000
     41 H41       -12.5583   -1.9274   58.5303 H       1  ZINC000523863446    0.0800
     42 H42       -12.8761   -0.9446   57.0807 H       1  ZINC000523863446    0.0700
     43 H43       -11.5267   -3.5461   56.5695 H       1  ZINC000523863446    0.0700
     44 H44       -13.0952   -4.1891   58.3791 H       1  ZINC000523863446    0.0600
     45 H45       -14.4301   -3.4051   57.5007 H       1  ZINC000523863446    0.0600
     46 H46       -12.7404   -5.7276   56.4672 H       1  ZINC000523863446    0.0600
     47 H47       -14.4053   -5.8496   57.0849 H       1  ZINC000523863446    0.0600
     48 H48       -14.3805   -5.7471   54.6075 H       1  ZINC000523863446    0.0600
     49 H49       -15.1807   -4.3149   55.2981 H       1  ZINC000523863446    0.0600
     50 H50       -12.2772   -4.4559   54.3670 H       1  ZINC000523863446    0.0600
     51 H51       -13.6122   -3.6720   53.4885 H       1  ZINC000523863446    0.0600
     52 H52       -13.9669   -2.1335   55.4005 H       1  ZINC000523863446    0.0600
     53 H53       -12.3021   -2.0115   54.7828 H       1  ZINC000523863446    0.0600
     54 H54       -10.8837    0.2055   59.6540 H       1  ZINC000523863446    0.1200
     55 H55        -9.8405   -0.2189   61.8436 H       1  ZINC000523863446    0.1200
     56 H56        -8.5242   -2.2685   62.2036 H       1  ZINC000523863446    0.1200
     57 H57        -8.2517   -3.8939   60.3742 H       1  ZINC000523863446    0.1200
     58 H58        -9.2987   -3.4716   58.1858 H       1  ZINC000523863446    0.1200
     59 H59        -6.5989    1.5782   51.1316 H       1  ZINC000523863446    0.1700
     60 H60        -6.3787   -1.0052   50.7197 H       1  ZINC000523863446    0.1500
     61 H61        -8.4257   -2.2081   51.9352 H       1  ZINC000523863446    0.1800
@<TRIPOS>BOND
     1     1     2    1
     2     1    32    1
     3     1    33    1
     4     1    34    1
     5     2     3    1
     6     2     4    1
     7     2    27    1
     8     4     5    2
     9     4     6   am
    10     6     7    1
    11     6     8    1
    12     7    35    1
    13     7    36    1
    14     7    37    1
    15     8     9    1
    16     8    38    1
    17     8    39    1
    18     9    10    2
    19     9    11   am
    20    11    12    1
    21    11    40    1
    22    12    13    1
    23    12    14    1
    24    12    21    1
    25    14    15    1
    26    14    41    1
    27    14    42    1
    28    15    20    1
    29    15    16    1
    30    15    43    1
    31    16    17    1
    32    16    44    1
    33    16    45    1
    34    17    18    1
    35    17    46    1
    36    17    47    1
    37    18    19    1
    38    18    48    1
    39    18    49    1
    40    19    20    1
    41    19    50    1
    42    19    51    1
    43    20    52    1
    44    20    53    1
    45    21    26   ar
    46    21    22   ar
    47    22    23   ar
    48    22    54    1
    49    23    24   ar
    50    23    55    1
    51    24    25   ar
    52    24    56    1
    53    25    26   ar
    54    25    57    1
    55    26    58    1
    56    27    31    1
    57    27    28    1
    58    28    29    2
    59    28    59    1
    60    29    30    1
    61    29    60    1
    62    30    31    2
    63    30    61    1
@<TRIPOS>SUBSTRUCTURE
     1 ZINC000523863446        1 TEMP              0 ****  ****    0 ROOT


##########                                Name:    ZINC000046390957
##########                DOCK_Rotatable_Bonds:                   9
##########                         Heavy_Atoms:                  29
##########                    Molecular_Weight:             408.521
##########                DOCK_Rotatable_Bonds:                   9
##########                       Formal_Charge:           0.0100005
##########                     HBond_Acceptors:                   6
##########                        HBond_Donors:                   1
##########                         Heavy_Atoms:                  29
##########                          Grid_Score:          -37.257469
##########                     Grid_vdw_energy:          -36.965584
##########                      Grid_es_energy:           -0.291886
##########           Internal_energy_repulsive:           17.304913

@<TRIPOS>MOLECULE
ZINC000046390957
 53 55 1 0 0
SMALL
USER_CHARGES


@<TRIPOS>ATOM
      1 C1         -9.5483   -4.0679   59.2528 C.3     1  ZINC000046390957   -0.1100
      2 C2        -10.2056   -2.9044   59.9496 C.ar    1  ZINC000046390957   -0.0600
      3 C3         -9.6179   -2.3470   61.0683 C.ar    1  ZINC000046390957   -0.1200
      4 C4        -10.2205   -1.2798   61.7085 C.ar    1  ZINC000046390957   -0.1100
      5 C5        -11.4126   -0.7668   61.2310 C.ar    1  ZINC000046390957   -0.1200
      6 C6        -12.0051   -1.3194   60.1125 C.ar    1  ZINC000046390957   -0.0800
      7 C7        -13.3040   -0.7594   59.5925 C.3     1  ZINC000046390957   -0.1100
      8 C8        -11.3997   -2.3879   59.4642 C.ar    1  ZINC000046390957    0.1300
      9 N9        -11.9972   -2.9497   58.3304 N.am    1  ZINC000046390957   -0.6800
     10 C10       -11.6763   -2.4935   57.1035 C.2     1  ZINC000046390957    0.5200
     11 O11       -10.8696   -1.5959   56.9821 O.2     1  ZINC000046390957   -0.4900
     12 C12       -12.3197   -3.0986   55.8825 C.3     1  ZINC000046390957    0.0700
     13 H13       -12.1920   -4.1809   55.9030 H       1  ZINC000046390957    0.1100
     14 C14       -13.8120   -2.7614   55.8724 C.3     1  ZINC000046390957   -0.1700
     15 O15       -11.6937   -2.5599   54.6882 O.3     1  ZINC000046390957   -0.3300
     16 C16       -11.8723   -3.2419   53.5461 C.2     1  ZINC000046390957    0.4700
     17 O17       -11.9314   -4.4486   53.5658 O.2     1  ZINC000046390957   -0.4800
     18 C18       -11.9994   -2.5026   52.2390 C.3     1  ZINC000046390957   -0.0300
     19 C19       -11.5408   -1.0786   52.4206 C.2     1  ZINC000046390957    0.0800
     20 C20       -12.3005   -0.0278   52.0973 C.2     1  ZINC000046390957   -0.2500
     21 S21       -11.3893    1.4343   52.4672 S.3     1  ZINC000046390957    0.1300
     22 C22       -10.0774    0.4871   53.0197 C.2     1  ZINC000046390957    0.0600
     23 C23        -8.7813    1.0379   53.5560 C.3     1  ZINC000046390957    0.0000
     24 C24        -7.7024    0.8871   52.5147 C.ar    1  ZINC000046390957   -0.0900
     25 C25        -6.8259    1.9281   52.2718 C.ar    1  ZINC000046390957   -0.0900
     26 C26        -5.8363    1.7897   51.3166 C.ar    1  ZINC000046390957   -0.1200
     27 C27        -5.7230    0.6103   50.6046 C.ar    1  ZINC000046390957   -0.1200
     28 C28        -6.5989   -0.4310   50.8481 C.ar    1  ZINC000046390957   -0.1200
     29 C29        -7.5858   -0.2942   51.8064 C.ar    1  ZINC000046390957   -0.1100
     30 N30       -10.3602   -0.7676   52.9164 N.2     1  ZINC000046390957   -0.4500
     31 H31        -8.7850   -3.6976   58.5685 H       1  ZINC000046390957    0.0800
     32 H32        -9.0865   -4.7211   59.9933 H       1  ZINC000046390957    0.0700
     33 H33       -10.2982   -4.6267   58.6928 H       1  ZINC000046390957    0.0600
     34 H34        -8.6869   -2.7454   61.4437 H       1  ZINC000046390957    0.1300
     35 H35        -9.7594   -0.8461   62.5835 H       1  ZINC000046390957    0.1300
     36 H36       -11.8810    0.0666   61.7334 H       1  ZINC000046390957    0.1300
     37 H37       -13.0961    0.0284   58.8685 H       1  ZINC000046390957    0.0700
     38 H38       -13.8752   -1.5534   59.1114 H       1  ZINC000046390957    0.0600
     39 H39       -13.8802   -0.3484   60.4214 H       1  ZINC000046390957    0.0700
     40 H40       -12.6423   -3.6676   58.4275 H       1  ZINC000046390957    0.4100
     41 H41       -14.2820   -3.1658   56.7689 H       1  ZINC000046390957    0.0800
     42 H42       -13.9399   -1.6791   55.8518 H       1  ZINC000046390957    0.0800
     43 H43       -14.2775   -3.1990   54.9892 H       1  ZINC000046390957    0.0800
     44 H44       -11.3819   -2.9899   51.4844 H       1  ZINC000046390957    0.1200
     45 H45       -13.0406   -2.5107   51.9168 H       1  ZINC000046390957    0.1300
     46 H46       -13.2969   -0.0676   51.6825 H       1  ZINC000046390957    0.1800
     47 H47        -8.9075    2.0932   53.7982 H       1  ZINC000046390957    0.1000
     48 H48        -8.4980    0.4903   54.4548 H       1  ZINC000046390957    0.1000
     49 H49        -6.9145    2.8495   52.8282 H       1  ZINC000046390957    0.1200
     50 H50        -5.1519    2.6032   51.1264 H       1  ZINC000046390957    0.1200
     51 H51        -4.9502    0.5025   49.8578 H       1  ZINC000046390957    0.1200
     52 H52        -6.5106   -1.3523   50.2916 H       1  ZINC000046390957    0.1200
     53 H53        -8.2702   -1.1078   51.9966 H       1  ZINC000046390957    0.1200
@<TRIPOS>BOND
     1     1     2    1
     2     1    31    1
     3     1    32    1
     4     1    33    1
     5     2     8   ar
     6     2     3   ar
     7     3     4   ar
     8     3    34    1
     9     4     5   ar
    10     4    35    1
    11     5     6   ar
    12     5    36    1
    13     6     7    1
    14     6     8   ar
    15     7    37    1
    16     7    38    1
    17     7    39    1
    18     8     9    1
    19     9    10   am
    20     9    40    1
    21    10    11    2
    22    10    12    1
    23    12    13    1
    24    12    14    1
    25    12    15    1
    26    14    41    1
    27    14    42    1
    28    14    43    1
    29    15    16    1
    30    16    17    2
    31    16    18    1
    32    18    19    1
    33    18    44    1
    34    18    45    1
    35    19    30    1
    36    19    20    2
    37    20    21    1
    38    20    46    1
    39    21    22    1
    40    22    23    1
    41    22    30    2
    42    23    24    1
    43    23    47    1
    44    23    48    1
    45    24    29   ar
    46    24    25   ar
    47    25    26   ar
    48    25    49    1
    49    26    27   ar
    50    26    50    1
    51    27    28   ar
    52    27    51    1
    53    28    29   ar
    54    28    52    1
    55    29    53    1
@<TRIPOS>SUBSTRUCTURE
     1 ZINC000046390957        1 TEMP              0 ****  ****    0 ROOT


##########                                Name:    ZINC001347442583
##########                DOCK_Rotatable_Bonds:                   9
##########                         Heavy_Atoms:                  27
##########                    Molecular_Weight:             370.492
##########                DOCK_Rotatable_Bonds:                   9
##########                       Formal_Charge:          -0.0400009
##########                     HBond_Acceptors:                   5
##########                        HBond_Donors:                   1
##########                         Heavy_Atoms:                  27
##########                          Grid_Score:          -37.240879
##########                     Grid_vdw_energy:          -37.322048
##########                      Grid_es_energy:            0.081170
##########           Internal_energy_repulsive:           14.846057

@<TRIPOS>MOLECULE
ZINC001347442583
 57 60 1 0 0
SMALL
USER_CHARGES


@<TRIPOS>ATOM
      1 O1        -11.2766   -3.8805   52.4991 O.2     1  ZINC001347442583   -0.5400
      2 C2        -11.6233   -2.9571   53.2048 C.2     1  ZINC001347442583    0.5400
      3 C3        -10.9569   -1.6124   53.0676 C.3     1  ZINC001347442583   -0.1400
      4 C4         -9.7055   -1.7497   52.1980 C.3     1  ZINC001347442583   -0.1000
      5 C5         -8.8420   -0.4953   52.3453 C.3     1  ZINC001347442583   -0.1100
      6 C6         -7.5118   -0.7038   51.6185 C.3     1  ZINC001347442583   -0.0800
      7 C7         -6.7517    0.5969   51.5790 C.ar    1  ZINC001347442583   -0.0800
      8 C8         -5.6196    0.7124   50.7943 C.ar    1  ZINC001347442583   -0.1200
      9 C9         -4.9225    1.9056   50.7582 C.ar    1  ZINC001347442583   -0.1200
     10 C10        -5.3578    2.9834   51.5063 C.ar    1  ZINC001347442583   -0.1300
     11 C11        -6.4905    2.8682   52.2902 C.ar    1  ZINC001347442583   -0.1200
     12 C12        -7.1901    1.6763   52.3231 C.ar    1  ZINC001347442583   -0.1200
     13 N13       -12.6084   -3.1319   54.1079 N.am    1  ZINC001347442583   -0.6300
     14 C14       -13.4277   -4.3451   54.4457 C.3     1  ZINC001347442583    0.1200
     15 H15       -13.2057   -5.2438   53.8704 H       1  ZINC001347442583    0.1200
     16 C16       -14.8727   -3.7838   54.2853 C.3     1  ZINC001347442583   -0.1300
     17 C17       -14.7349   -2.3045   54.7219 C.3     1  ZINC001347442583   -0.1300
     18 C18       -13.2209   -2.1751   55.0911 C.3     1  ZINC001347442583    0.1200
     19 H19       -12.8192   -1.1619   55.0811 H       1  ZINC001347442583    0.1200
     20 C20       -13.0646   -2.9471   56.4359 C.3     1  ZINC001347442583    0.1300
     21 H21       -13.8538   -2.6669   57.1335 H       1  ZINC001347442583    0.1100
     22 N22       -11.7459   -2.6980   57.0237 N.am    1  ZINC001347442583   -0.7200
     23 C23       -11.5974   -2.6817   58.3631 C.2     1  ZINC001347442583    0.5300
     24 O24       -12.5551   -2.8748   59.0818 O.2     1  ZINC001347442583   -0.5300
     25 C25       -10.2413   -2.4237   58.9678 C.3     1  ZINC001347442583   -0.1500
     26 H26        -9.5936   -1.9094   58.2579 H       1  ZINC001347442583    0.1100
     27 C27       -10.3693   -1.6135   60.2865 C.3     1  ZINC001347442583   -0.1400
     28 C28        -9.1024   -2.0836   61.0447 C.3     1  ZINC001347442583    0.0500
     29 O29        -8.9560   -3.4717   60.7058 O.3     1  ZINC001347442583   -0.3800
     30 C30        -9.5943   -3.7405   59.4480 C.3     1  ZINC001347442583    0.0700
     31 C31       -13.1837   -4.4522   55.9812 C.3     1  ZINC001347442583   -0.1400
     32 H32       -11.6480   -0.9101   52.6014 H       1  ZINC001347442583    0.0900
     33 H33       -10.6751   -1.2441   54.0541 H       1  ZINC001347442583    0.0900
     34 H34        -9.1358   -2.6227   52.5165 H       1  ZINC001347442583    0.0700
     35 H35        -9.9992   -1.8683   51.1550 H       1  ZINC001347442583    0.0700
     36 H36        -9.3633    0.3578   51.9112 H       1  ZINC001347442583    0.0600
     37 H37        -8.6528   -0.3065   53.4020 H       1  ZINC001347442583    0.0600
     38 H38        -6.9225   -1.4531   52.1470 H       1  ZINC001347442583    0.0700
     39 H39        -7.7032   -1.0436   50.6007 H       1  ZINC001347442583    0.0700
     40 H40        -5.2794   -0.1296   50.2099 H       1  ZINC001347442583    0.1200
     41 H41        -4.0374    1.9956   50.1458 H       1  ZINC001347442583    0.1200
     42 H42        -4.8128    3.9154   51.4786 H       1  ZINC001347442583    0.1200
     43 H43        -6.8305    3.7102   52.8750 H       1  ZINC001347442583    0.1200
     44 H44        -8.0751    1.5863   52.9355 H       1  ZINC001347442583    0.1200
     45 H45       -15.1969   -3.8490   53.2467 H       1  ZINC001347442583    0.0700
     46 H46       -15.5653   -4.3141   54.9389 H       1  ZINC001347442583    0.0800
     47 H47       -14.9909   -1.6361   53.8998 H       1  ZINC001347442583    0.0800
     48 H48       -15.3591   -2.1012   55.5920 H       1  ZINC001347442583    0.0800
     49 H49       -10.9798   -2.5448   56.4488 H       1  ZINC001347442583    0.4000
     50 H50       -10.3364   -0.5412   60.0936 H       1  ZINC001347442583    0.0900
     51 H51       -11.2750   -1.8856   60.8285 H       1  ZINC001347442583    0.0900
     52 H52        -8.2313   -1.5190   60.7120 H       1  ZINC001347442583    0.0700
     53 H53        -9.2405   -1.9690   62.1198 H       1  ZINC001347442583    0.0900
     54 H54       -10.3638   -4.5013   59.5789 H       1  ZINC001347442583    0.0700
     55 H55        -8.8548   -4.0816   58.7236 H       1  ZINC001347442583    0.0800
     56 H56       -14.0421   -4.9293   56.4539 H       1  ZINC001347442583    0.0900
     57 H57       -12.2669   -4.9959   56.2093 H       1  ZINC001347442583    0.0800
@<TRIPOS>BOND
     1     1     2    2
     2     2     3    1
     3     2    13   am
     4     3     4    1
     5     3    32    1
     6     3    33    1
     7     4     5    1
     8     4    34    1
     9     4    35    1
    10     5     6    1
    11     5    36    1
    12     5    37    1
    13     6     7    1
    14     6    38    1
    15     6    39    1
    16     7    12   ar
    17     7     8   ar
    18     8     9   ar
    19     8    40    1
    20     9    10   ar
    21     9    41    1
    22    10    11   ar
    23    10    42    1
    24    11    12   ar
    25    11    43    1
    26    12    44    1
    27    13    18    1
    28    13    14    1
    29    14    15    1
    30    14    31    1
    31    14    16    1
    32    16    17    1
    33    16    45    1
    34    16    46    1
    35    17    18    1
    36    17    47    1
    37    17    48    1
    38    18    19    1
    39    18    20    1
    40    20    21    1
    41    20    22    1
    42    20    31    1
    43    22    23   am
    44    22    49    1
    45    23    24    2
    46    23    25    1
    47    25    26    1
    48    25    30    1
    49    25    27    1
    50    27    28    1
    51    27    50    1
    52    27    51    1
    53    28    29    1
    54    28    52    1
    55    28    53    1
    56    29    30    1
    57    30    54    1
    58    30    55    1
    59    31    56    1
    60    31    57    1
@<TRIPOS>SUBSTRUCTURE
     1 ZINC001347442583        1 TEMP              0 ****  ****    0 ROOT


##########                                Name:    ZINC000269287897
##########                DOCK_Rotatable_Bonds:                   8
##########                         Heavy_Atoms:                  23
##########                    Molecular_Weight:             385.301
##########                DOCK_Rotatable_Bonds:                   8
##########                       Formal_Charge:           0.0300002
##########                     HBond_Acceptors:                   5
##########                        HBond_Donors:                   1
##########                         Heavy_Atoms:                  23
##########                          Grid_Score:          -37.219856
##########                     Grid_vdw_energy:          -36.244377
##########                      Grid_es_energy:           -0.975478
##########           Internal_energy_repulsive:           10.267206

@<TRIPOS>MOLECULE
ZINC000269287897
 48 49 1 0 0
SMALL
USER_CHARGES


@<TRIPOS>ATOM
      1 C1         -7.0963   -0.5473   51.1390 C.3     1  ZINC000269287897    0.0300
      2 O2         -8.3530   -1.1911   51.3587 O.3     1  ZINC000269287897   -0.3800
      3 C3         -9.1805   -0.5371   52.3228 C.3     1  ZINC000269287897    0.0600
      4 C4        -10.4895   -1.3132   52.4816 C.3     1  ZINC000269287897    0.0600
      5 O5        -10.1997   -2.6788   52.7867 O.3     1  ZINC000269287897   -0.3800
      6 C6        -11.3584   -3.4775   53.0346 C.3     1  ZINC000269287897    0.0700
      7 C7        -12.0764   -2.9609   54.2830 C.3     1  ZINC000269287897   -0.1000
      8 H8        -12.5744   -2.0127   54.0805 H       1  ZINC000269287897    0.1000
      9 C9        -13.0813   -4.0131   54.8220 C.3     1  ZINC000269287897   -0.1200
     10 C10       -13.1665   -3.6716   56.3246 C.3     1  ZINC000269287897    0.1000
     11 N11       -11.9421   -2.9373   56.6755 N.am    1  ZINC000269287897   -0.6300
     12 C12       -11.6435   -2.4447   57.8940 C.2     1  ZINC000269287897    0.7300
     13 O13       -12.4202   -2.5947   58.8174 O.2     1  ZINC000269287897   -0.5600
     14 N14       -10.4840   -1.7860   58.0888 N.am    1  ZINC000269287897   -0.6900
     15 C15       -10.1738   -1.2744   59.3544 C.ar    1  ZINC000269287897    0.1800
     16 C16       -10.5686    0.0104   59.7013 C.ar    1  ZINC000269287897   -0.0600
     17 C17       -11.3320    0.8568   58.7154 C.3     1  ZINC000269287897   -0.1000
     18 C18       -10.2615    0.5124   60.9513 C.ar    1  ZINC000269287897   -0.0900
     19 C19        -9.5616   -0.2633   61.8568 C.ar    1  ZINC000269287897   -0.0800
     20 C20        -9.2285    0.2878   63.2192 C.3     1  ZINC000269287897   -0.1100
     21 C21        -9.1669   -1.5441   61.5152 C.ar    1  ZINC000269287897   -0.0900
     22 C22        -9.4750   -2.0538   60.2685 C.ar    1  ZINC000269287897   -0.1000
     23 Br23       -8.9357   -3.8052   59.8021 Br      1  ZINC000269287897   -0.0500
     24 C24       -11.0942   -2.8290   55.4737 C.3     1  ZINC000269287897    0.1400
     25 H25        -7.2660    0.4682   50.7812 H       1  ZINC000269287897    0.0400
     26 H26        -6.5366   -0.5144   52.0738 H       1  ZINC000269287897    0.0400
     27 H27        -6.5278   -1.1046   50.3946 H       1  ZINC000269287897    0.0900
     28 H28        -8.6620   -0.4995   53.2808 H       1  ZINC000269287897    0.0600
     29 H29        -9.3977    0.4768   51.9870 H       1  ZINC000269287897    0.0600
     30 H30       -11.0750   -0.8764   53.2906 H       1  ZINC000269287897    0.0700
     31 H31       -11.0577   -1.2610   51.5528 H       1  ZINC000269287897    0.0600
     32 H32       -12.0305   -3.4184   52.1784 H       1  ZINC000269287897    0.0600
     33 H33       -11.0587   -4.5138   53.1905 H       1  ZINC000269287897    0.0500
     34 H34       -14.0543   -3.8970   54.3444 H       1  ZINC000269287897    0.0900
     35 H35       -12.6973   -5.0228   54.6771 H       1  ZINC000269287897    0.0800
     36 H36       -14.0401   -3.0478   56.5141 H       1  ZINC000269287897    0.0700
     37 H37       -13.2293   -4.5888   56.9102 H       1  ZINC000269287897    0.0700
     38 H38        -9.8644   -1.6663   57.3521 H       1  ZINC000269287897    0.4100
     39 H39       -12.3980    0.7985   58.9354 H       1  ZINC000269287897    0.0900
     40 H40       -11.0011    1.8924   58.7929 H       1  ZINC000269287897    0.0600
     41 H41       -11.1491    0.4915   57.7049 H       1  ZINC000269287897    0.0600
     42 H42       -10.5682    1.5121   61.2213 H       1  ZINC000269287897    0.1300
     43 H43       -10.0335    0.0496   63.9143 H       1  ZINC000269287897    0.0700
     44 H44        -8.2988   -0.1573   63.5738 H       1  ZINC000269287897    0.0700
     45 H45        -9.1120    1.3696   63.1550 H       1  ZINC000269287897    0.0700
     46 H46        -8.6202   -2.1475   62.2247 H       1  ZINC000269287897    0.1400
     47 H47       -10.3622   -3.6363   55.4520 H       1  ZINC000269287897    0.0700
     48 H48       -10.5937   -1.8611   55.4485 H       1  ZINC000269287897    0.0900
@<TRIPOS>BOND
     1     1     2    1
     2     1    25    1
     3     1    26    1
     4     1    27    1
     5     2     3    1
     6     3     4    1
     7     3    28    1
     8     3    29    1
     9     4     5    1
    10     4    30    1
    11     4    31    1
    12     5     6    1
    13     6     7    1
    14     6    32    1
    15     6    33    1
    16     7     8    1
    17     7    24    1
    18     7     9    1
    19     9    10    1
    20     9    34    1
    21     9    35    1
    22    10    11    1
    23    10    36    1
    24    10    37    1
    25    11    12   am
    26    11    24    1
    27    12    13    2
    28    12    14   am
    29    14    15    1
    30    14    38    1
    31    15    22   ar
    32    15    16   ar
    33    16    17    1
    34    16    18   ar
    35    17    39    1
    36    17    40    1
    37    17    41    1
    38    18    19   ar
    39    18    42    1
    40    19    20    1
    41    19    21   ar
    42    20    43    1
    43    20    44    1
    44    20    45    1
    45    21    22   ar
    46    21    46    1
    47    22    23    1
    48    24    47    1
    49    24    48    1
@<TRIPOS>SUBSTRUCTURE
     1 ZINC000269287897        1 TEMP              0 ****  ****    0 ROOT


##########                                Name:     oleObject27.pdb
##########                DOCK_Rotatable_Bonds:                   9
##########                         Heavy_Atoms:                  35
##########                    Molecular_Weight:             513.466
##########                DOCK_Rotatable_Bonds:                   9
##########                       Formal_Charge:         0.000199873
##########                     HBond_Acceptors:                   8
##########                        HBond_Donors:                   1
##########                         Heavy_Atoms:                  35
##########                          Grid_Score:          -37.198647
##########                     Grid_vdw_energy:          -37.178131
##########                      Grid_es_energy:           -0.020514
##########           Internal_energy_repulsive:           75.985107

@<TRIPOS>MOLECULE
oleObject27.pdb
 65 68 1 0 0
SMALL
NO_CHARGES


@<TRIPOS>ATOM
      1 C         -10.1946    4.3817   56.5727 C.ar    1  UNL        -0.0620
      2 C          -9.5403    3.1415   56.5544 C.ar    1  UNL        -0.0590
      3 C          -9.3402    2.4512   55.3430 C.ar    1  UNL        -0.0456
      4 C          -9.7985    3.0188   54.1280 C.ar    1  UNL        -0.0187
      5 C         -10.4655    4.2631   54.1639 C.ar    1  UNL        -0.0565
      6 C         -10.6607    4.9413   55.3761 C.ar    1  UNL        -0.0619
      7 C          -9.5964    2.2955   52.7871 C.3     1  UNL         0.0921
      8 C          -8.1419    2.3346   52.3081 C.ar    1  UNL         0.0681
      9 C          -7.3999    1.1545   52.0512 C.ar    1  UNL        -0.0272
     10 C          -6.0644    1.2845   51.6257 C.ar    1  UNL        -0.0559
     11 C          -5.5146    2.5667   51.4813 C.ar    1  UNL        -0.0435
     12 C          -6.3174    3.6794   51.7735 C.ar    1  UNL         0.0272
     13 N          -7.5956    3.5658   52.1805 N.ar    1  UNL        -0.2587
     14 C          -7.9940   -0.2376   52.2325 C.3     1  UNL        -0.0379
     15 N         -10.0908    0.9111   52.8029 N.am    1  UNL        -0.2865
     16 C         -11.4284    0.5664   52.7292 C.2     1  UNL         0.3014
     17 O         -12.3064    1.4093   52.6489 O.2     1  UNL        -0.2541
     18 N         -11.6994   -0.8029   52.7588 N.am    1  UNL        -0.2833
     19 C         -10.6219   -1.8245   52.8627 C.3     1  UNL         0.0284
     20 C         -11.0561   -3.2698   52.5173 C.3     1  UNL         0.0142
     21 N         -12.3293   -3.6450   53.1566 N.4     1  UNL        -0.2979
     22 C         -13.3887   -2.7165   52.7151 C.3     1  UNL         0.0142
     23 C         -13.0742   -1.2504   53.0916 C.3     1  UNL         0.0284
     24 C         -12.2091   -3.8372   54.6219 C.3     1  UNL         0.0223
     25 C         -13.2274   -4.8467   55.1890 C.3     1  UNL         0.0661
     26 O         -12.8972   -5.0682   56.5713 O.3     1  UNL        -0.3432
     27 C         -13.2676   -4.2144   57.5924 C.ar    1  UNL         0.0937
     28 C         -14.6210   -3.9589   57.9007 C.ar    1  UNL        -0.0288
     29 C         -14.9542   -3.0836   58.9478 C.ar    1  UNL        -0.0408
     30 C         -13.9409   -2.4593   59.6920 C.ar    1  UNL         0.0422
     31 C         -12.5926   -2.7085   59.3918 C.ar    1  UNL        -0.0221
     32 C         -12.2562   -3.5834   58.3455 C.ar    1  UNL         0.0723
     33 CL        -10.5622   -3.8730   57.9959 Cl      1  UNL        -0.0814
     34 CL        -14.3595   -1.3690   60.9962 Cl      1  UNL        -0.0843
     35 C          -8.6374    1.0983   55.3816 C.3     1  UNL        -0.0394
     36 H         -10.3448    4.9044   57.5131 H       1  UNL         0.0623
     37 H          -9.1893    2.7143   57.4894 H       1  UNL         0.0626
     38 H         -10.8440    4.7096   53.2492 H       1  UNL         0.0627
     39 H         -11.1745    5.8981   55.3869 H       1  UNL         0.0623
     40 H         -10.2099    2.8214   52.0497 H       1  UNL         0.0625
     41 H          -5.4600    0.4069   51.4143 H       1  UNL         0.0627
     42 H          -4.4867    2.6961   51.1558 H       1  UNL         0.0639
     43 H          -5.9268    4.6919   51.6793 H       1  UNL         0.0840
     44 H          -8.4238   -0.3567   53.2352 H       1  UNL         0.0280
     45 H          -7.2357   -1.0208   52.1078 H       1  UNL         0.0280
     46 H          -8.7863   -0.4269   51.4978 H       1  UNL         0.0280
     47 H          -9.4149    0.1688   52.9160 H       1  UNL         0.1521
     48 H         -10.2357   -1.8053   53.8898 H       1  UNL         0.0484
     49 H          -9.7949   -1.5625   52.1913 H       1  UNL         0.0484
     50 H         -10.2619   -3.9698   52.8068 H       1  UNL         0.0447
     51 H         -11.1705   -3.3423   51.4278 H       1  UNL         0.0447
     52 H         -14.3635   -3.0017   53.1275 H       1  UNL         0.0447
     53 H         -13.4778   -2.7755   51.6226 H       1  UNL         0.0447
     54 H         -13.2202   -1.1200   54.1713 H       1  UNL         0.0484
     55 H         -13.7998   -0.6035   52.5819 H       1  UNL         0.0484
     56 H         -12.3300   -2.8812   55.1469 H       1  UNL         0.0455
     57 H         -11.2032   -4.2116   54.8520 H       1  UNL         0.0455
     58 H         -13.1636   -5.7868   54.6261 H       1  UNL         0.0586
     59 H         -14.2445   -4.4447   55.1067 H       1  UNL         0.0586
     60 H         -15.4205   -4.4310   57.3390 H       1  UNL         0.0652
     61 H         -15.9975   -2.8902   59.1811 H       1  UNL         0.0639
     62 H         -11.8091   -2.2249   59.9684 H       1  UNL         0.0655
     63 H          -8.4443    0.7703   56.4106 H       1  UNL         0.0280
     64 H          -7.6701    1.1416   54.8655 H       1  UNL         0.0280
     65 H          -9.2469    0.3219   54.9032 H       1  UNL         0.0280
@<TRIPOS>BOND
     1     1     2   ar
     2     1     6   ar
     3     1    36    1
     4     2     3   ar
     5     2    37    1
     6     3     4   ar
     7     3    35    1
     8     4     5   ar
     9     4     7    1
    10     5     6   ar
    11     5    38    1
    12     6    39    1
    13     7     8    1
    14     7    15    1
    15     7    40    1
    16     8     9   ar
    17     8    13   ar
    18     9    10   ar
    19     9    14    1
    20    10    11   ar
    21    10    41    1
    22    11    12   ar
    23    11    42    1
    24    12    13   ar
    25    12    43    1
    26    14    44    1
    27    14    45    1
    28    14    46    1
    29    15    16   am
    30    15    47    1
    31    16    17    2
    32    16    18   am
    33    18    19    1
    34    18    23    1
    35    19    20    1
    36    19    48    1
    37    19    49    1
    38    20    21    1
    39    20    50    1
    40    20    51    1
    41    21    22    1
    42    21    24    1
    43    22    23    1
    44    22    52    1
    45    22    53    1
    46    23    54    1
    47    23    55    1
    48    24    25    1
    49    24    56    1
    50    24    57    1
    51    25    26    1
    52    25    58    1
    53    25    59    1
    54    26    27    1
    55    27    28   ar
    56    27    32   ar
    57    28    29   ar
    58    28    60    1
    59    29    30   ar
    60    29    61    1
    61    30    31   ar
    62    30    34    1
    63    31    32   ar
    64    31    62    1
    65    32    33    1
    66    35    63    1
    67    35    64    1
    68    35    65    1
@<TRIPOS>SUBSTRUCTURE
     1 UNL         1 TEMP              0 ****  ****    0 ROOT


##########                                Name:    ZINC000489403631
##########                DOCK_Rotatable_Bonds:                   7
##########                         Heavy_Atoms:                  28
##########                    Molecular_Weight:             381.391
##########                DOCK_Rotatable_Bonds:                   7
##########                       Formal_Charge:          -0.0300003
##########                     HBond_Acceptors:                   9
##########                        HBond_Donors:                   1
##########                         Heavy_Atoms:                  28
##########                          Grid_Score:          -37.160461
##########                     Grid_vdw_energy:          -37.308823
##########                      Grid_es_energy:            0.148363
##########           Internal_energy_repulsive:           11.520059

@<TRIPOS>MOLECULE
ZINC000489403631
 47 49 1 0 0
SMALL
USER_CHARGES


@<TRIPOS>ATOM
      1 C1         -9.1837   -3.4768   59.6120 C.3     1  ZINC000489403631   -0.1100
      2 C2         -9.4683   -2.0771   59.1319 C.ar    1  ZINC000489403631   -0.0800
      3 C3         -9.8274   -1.8580   57.8170 C.ar    1  ZINC000489403631   -0.0900
      4 C4        -10.0896   -0.5679   57.3747 C.ar    1  ZINC000489403631    0.1200
      5 N5        -10.4545   -0.3452   56.0406 N.am    1  ZINC000489403631   -0.6600
      6 C6         -9.5435    0.1154   55.1607 C.2     1  ZINC000489403631    0.5100
      7 O7         -8.4077    0.3372   55.5238 O.2     1  ZINC000489403631   -0.4600
      8 C8         -9.9361    0.3551   53.7255 C.3     1  ZINC000489403631    0.1700
      9 C9        -11.0449   -0.6223   53.3302 C.3     1  ZINC000489403631   -0.1700
     10 C10       -10.4415    1.7905   53.5679 C.3     1  ZINC000489403631   -0.1700
     11 N11        -8.7722    0.1493   52.8600 N.pl3   1  ZINC000489403631   -0.3400
     12 C12        -7.8514    1.0800   52.5333 C.2     1  ZINC000489403631    0.1500
     13 C13        -6.9435    0.4940   51.7188 C.2     1  ZINC000489403631   -0.1900
     14 N14        -5.7583    1.1494   51.1216 N.pl3   1  ZINC000489403631    0.0700
     15 O15        -5.0007    0.5100   50.4140 O.2     1  ZINC000489403631   -0.1700
     16 O16        -5.5407    2.3281   51.3379 O.2     1  ZINC000489403631   -0.1600
     17 C17        -7.3226   -0.8407   51.5415 C.2     1  ZINC000489403631    0.1000
     18 N18        -8.4153   -1.0499   52.2301 N.2     1  ZINC000489403631   -0.2200
     19 C19        -9.9903    0.5008   58.2552 C.ar    1  ZINC000489403631   -0.1100
     20 C20        -9.6310    0.2805   59.5703 C.ar    1  ZINC000489403631   -0.1700
     21 C21        -9.3747   -1.0090   60.0130 C.ar    1  ZINC000489403631    0.1000
     22 O22        -9.0210   -1.2253   61.3078 O.3     1  ZINC000489403631   -0.2500
     23 C23        -9.7263   -0.5874   62.2760 C.ar    1  ZINC000489403631    0.1400
     24 C24       -11.1124   -0.4759   62.1940 C.ar    1  ZINC000489403631   -0.2000
     25 C25       -11.7930    0.1802   63.1988 C.ar    1  ZINC000489403631    0.1200
     26 N26       -11.1474    0.6978   64.2268 N.ar    1  ZINC000489403631   -0.4900
     27 C27        -9.8354    0.6127   64.3401 C.ar    1  ZINC000489403631    0.1200
     28 C28        -9.0833   -0.0326   63.3801 C.ar    1  ZINC000489403631   -0.1800
     29 H29       -10.1059   -3.9311   59.9744 H       1  ZINC000489403631    0.0700
     30 H30        -8.7860   -4.0697   58.7882 H       1  ZINC000489403631    0.0700
     31 H31        -8.4535   -3.4423   60.4204 H       1  ZINC000489403631    0.0700
     32 H32        -9.9041   -2.6898   57.1323 H       1  ZINC000489403631    0.1500
     33 H33       -11.3629   -0.5225   55.7503 H       1  ZINC000489403631    0.4100
     34 H34       -11.9109   -0.4692   53.9742 H       1  ZINC000489403631    0.1000
     35 H35       -11.3289   -0.4490   52.2922 H       1  ZINC000489403631    0.0900
     36 H36       -10.6849   -1.6450   53.4425 H       1  ZINC000489403631    0.0800
     37 H37        -9.6516    2.4869   53.8496 H       1  ZINC000489403631    0.0800
     38 H38       -10.7254    1.9638   52.5299 H       1  ZINC000489403631    0.0900
     39 H39       -11.3075    1.9436   54.2119 H       1  ZINC000489403631    0.0900
     40 H40        -7.8409    2.1085   52.8627 H       1  ZINC000489403631    0.2000
     41 H41        -6.8008   -1.5731   50.9437 H       1  ZINC000489403631    0.2100
     42 H42       -10.1938    1.5043   57.9118 H       1  ZINC000489403631    0.1300
     43 H43        -9.5538    1.1118   60.2555 H       1  ZINC000489403631    0.1300
     44 H44       -11.6467   -0.8969   61.3553 H       1  ZINC000489403631    0.1400
     45 H45       -12.8678    0.2717   63.1432 H       1  ZINC000489403631    0.1600
     46 H46        -9.3446    1.0500   65.1970 H       1  ZINC000489403631    0.1700
     47 H47        -8.0099   -0.0990   63.4789 H       1  ZINC000489403631    0.1500
@<TRIPOS>BOND
     1     1     2    1
     2     1    29    1
     3     1    30    1
     4     1    31    1
     5     2    21   ar
     6     2     3   ar
     7     3     4   ar
     8     3    32    1
     9     4     5    1
    10     4    19   ar
    11     5     6   am
    12     5    33    1
    13     6     7    2
    14     6     8    1
    15     8     9    1
    16     8    10    1
    17     8    11    1
    18     9    34    1
    19     9    35    1
    20     9    36    1
    21    10    37    1
    22    10    38    1
    23    10    39    1
    24    11    18    1
    25    11    12    1
    26    12    13    2
    27    12    40    1
    28    13    14    1
    29    13    17    1
    30    14    15    2
    31    14    16    2
    32    17    18    2
    33    17    41    1
    34    19    20   ar
    35    19    42    1
    36    20    21   ar
    37    20    43    1
    38    21    22    1
    39    22    23    1
    40    23    28   ar
    41    23    24   ar
    42    24    25   ar
    43    24    44    1
    44    25    26   ar
    45    25    45    1
    46    26    27   ar
    47    27    28   ar
    48    27    46    1
    49    28    47    1
@<TRIPOS>SUBSTRUCTURE
     1 ZINC000489403631        1 TEMP              0 ****  ****    0 ROOT


##########                                Name:    ZINC000952280524
##########                DOCK_Rotatable_Bonds:                   9
##########                         Heavy_Atoms:                  25
##########                    Molecular_Weight:             348.486
##########                DOCK_Rotatable_Bonds:                   9
##########                       Formal_Charge:          -0.0100004
##########                     HBond_Acceptors:                   5
##########                        HBond_Donors:                   1
##########                         Heavy_Atoms:                  25
##########                          Grid_Score:          -37.125565
##########                     Grid_vdw_energy:          -34.183334
##########                      Grid_es_energy:           -2.942230
##########           Internal_energy_repulsive:           26.715752

@<TRIPOS>MOLECULE
ZINC000952280524
 57 59 1 0 0
SMALL
USER_CHARGES


@<TRIPOS>ATOM
      1 C1         -7.3526    1.3929   68.2180 C.3     1  ZINC000952280524   -0.1800
      2 C2         -7.0619    0.8767   66.8074 C.3     1  ZINC000952280524    0.1400
      3 C3         -6.7609    2.0586   65.8837 C.3     1  ZINC000952280524   -0.1900
      4 O4         -5.9331    0.0011   66.8437 O.3     1  ZINC000952280524   -0.5500
      5 C5         -8.2807    0.1158   66.2814 C.3     1  ZINC000952280524   -0.1200
      6 C6         -9.2804    1.0945   65.7211 C.2     1  ZINC000952280524    0.5300
      7 O7         -9.6827    2.0101   66.4072 O.2     1  ZINC000952280524   -0.5100
      8 N8         -9.7274    0.9521   64.4576 N.am    1  ZINC000952280524   -0.6300
      9 C9        -10.6979    1.8302   63.7879 C.3     1  ZINC000952280524    0.1000
     10 C10       -10.9238    1.2660   62.3694 C.3     1  ZINC000952280524   -0.1300
     11 C11       -10.4984   -0.2191   62.5144 C.3     1  ZINC000952280524   -0.1000
     12 H12       -11.3095   -0.8194   62.9266 H       1  ZINC000952280524    0.0900
     13 C13       -10.0255   -0.7873   61.1748 C.3     1  ZINC000952280524   -0.0700
     14 C14        -9.4292   -2.1796   61.3937 C.3     1  ZINC000952280524   -0.1300
     15 C15        -8.9254   -2.7310   60.0561 C.3     1  ZINC000952280524    0.1100
     16 N16       -10.0264   -2.6921   59.0838 N.am    1  ZINC000952280524   -0.6100
     17 C17       -10.3846   -3.8015   58.4074 C.2     1  ZINC000952280524    0.5500
     18 O18        -9.7948   -4.8476   58.5991 O.2     1  ZINC000952280524   -0.5500
     19 C19       -11.4890   -3.7468   57.4372 C.2     1  ZINC000952280524   -0.2200
     20 C20       -11.2623   -3.3310   56.1944 C.2     1  ZINC000952280524   -0.0300
     21 C21       -12.3933   -3.2767   55.1999 C.3     1  ZINC000952280524   -0.1500
     22 C22       -12.4241   -2.0945   54.2292 C.3     1  ZINC000952280524   -0.1700
     23 C23       -12.0476   -3.4890   53.7247 C.3     1  ZINC000952280524   -0.1600
     24 C24       -10.7297   -1.4211   58.8635 C.3     1  ZINC000952280524    0.1000
     25 C25       -11.2132   -0.8844   60.2144 C.3     1  ZINC000952280524   -0.1300
     26 C26        -9.3192   -0.1064   63.5160 C.3     1  ZINC000952280524    0.1100
     27 H27        -8.1569    2.1273   68.1775 H       1  ZINC000952280524    0.0700
     28 H28        -7.6523    0.5606   68.8549 H       1  ZINC000952280524    0.0600
     29 H29        -6.4557    1.8585   68.6265 H       1  ZINC000952280524    0.0600
     30 H30        -5.8926    2.6006   66.2583 H       1  ZINC000952280524    0.0600
     31 H31        -6.5538    1.6908   64.8787 H       1  ZINC000952280524    0.0800
     32 H32        -7.6219    2.7265   65.8559 H       1  ZINC000952280524    0.0600
     33 H33        -5.6911   -0.3646   65.9819 H       1  ZINC000952280524    0.3700
     34 H34        -7.9680   -0.5734   65.4971 H       1  ZINC000952280524    0.1000
     35 H35        -8.7386   -0.4447   67.0965 H       1  ZINC000952280524    0.1000
     36 H36       -11.6378    1.8328   64.3399 H       1  ZINC000952280524    0.0700
     37 H37       -10.2997    2.8429   63.7250 H       1  ZINC000952280524    0.0700
     38 H38       -11.9740    1.3406   62.0875 H       1  ZINC000952280524    0.0800
     39 H39       -10.2914    1.7793   61.6451 H       1  ZINC000952280524    0.0800
     40 H40        -9.2671   -0.1304   60.7491 H       1  ZINC000952280524    0.0800
     41 H41        -8.5981   -2.1132   62.0958 H       1  ZINC000952280524    0.0800
     42 H42       -10.1939   -2.8439   61.7962 H       1  ZINC000952280524    0.0700
     43 H43        -8.0986   -2.1185   59.6964 H       1  ZINC000952280524    0.0700
     44 H44        -8.5904   -3.7599   60.1878 H       1  ZINC000952280524    0.0900
     45 H45       -12.4838   -4.0442   57.7341 H       1  ZINC000952280524    0.1300
     46 H46       -10.2677   -3.0323   55.8979 H       1  ZINC000952280524    0.1300
     47 H47       -13.3492   -3.6631   55.5535 H       1  ZINC000952280524    0.1200
     48 H48       -13.4005   -1.7029   53.9440 H       1  ZINC000952280524    0.1000
     49 H49       -11.6264   -1.3561   54.3098 H       1  ZINC000952280524    0.1000
     50 H50       -11.0021   -3.6680   53.4734 H       1  ZINC000952280524    0.1000
     51 H51       -12.7762   -4.0148   53.1076 H       1  ZINC000952280524    0.1000
     52 H52       -10.0500   -0.7018   58.4066 H       1  ZINC000952280524    0.0700
     53 H53       -11.5852   -1.5857   58.2084 H       1  ZINC000952280524    0.0900
     54 H54       -11.9611   -1.5609   60.6281 H       1  ZINC000952280524    0.0700
     55 H55       -11.6520    0.1039   60.0773 H       1  ZINC000952280524    0.0800
     56 H56        -8.4042    0.1746   62.9947 H       1  ZINC000952280524    0.0700
     57 H57        -9.1806   -1.0484   64.0464 H       1  ZINC000952280524    0.0800
@<TRIPOS>BOND
     1     1     2    1
     2     1    27    1
     3     1    28    1
     4     1    29    1
     5     2     3    1
     6     2     4    1
     7     2     5    1
     8     3    30    1
     9     3    31    1
    10     3    32    1
    11     4    33    1
    12     5     6    1
    13     5    34    1
    14     5    35    1
    15     6     7    2
    16     6     8   am
    17     8    26    1
    18     8     9    1
    19     9    10    1
    20     9    36    1
    21     9    37    1
    22    10    11    1
    23    10    38    1
    24    10    39    1
    25    11    12    1
    26    11    13    1
    27    11    26    1
    28    13    25    1
    29    13    14    1
    30    13    40    1
    31    14    15    1
    32    14    41    1
    33    14    42    1
    34    15    16    1
    35    15    43    1
    36    15    44    1
    37    16    17   am
    38    16    24    1
    39    17    18    2
    40    17    19    1
    41    19    20    2
    42    19    45    1
    43    20    21    1
    44    20    46    1
    45    21    23    1
    46    21    22    1
    47    21    47    1
    48    22    23    1
    49    22    48    1
    50    22    49    1
    51    23    50    1
    52    23    51    1
    53    24    25    1
    54    24    52    1
    55    24    53    1
    56    25    54    1
    57    25    55    1
    58    26    56    1
    59    26    57    1
@<TRIPOS>SUBSTRUCTURE
     1 ZINC000952280524        1 TEMP              0 ****  ****    0 ROOT


##########                                Name:    ZINC000033150761
##########                DOCK_Rotatable_Bonds:                   7
##########                         Heavy_Atoms:                  29
##########                    Molecular_Weight:             413.407
##########                DOCK_Rotatable_Bonds:                   7
##########                       Formal_Charge:          0.00999993
##########                     HBond_Acceptors:                  10
##########                        HBond_Donors:                   1
##########                         Heavy_Atoms:                  29
##########                          Grid_Score:          -37.089619
##########                     Grid_vdw_energy:          -37.408661
##########                      Grid_es_energy:            0.319041
##########           Internal_energy_repulsive:            7.157547

@<TRIPOS>MOLECULE
ZINC000033150761
 42 45 1 0 0
SMALL
USER_CHARGES


@<TRIPOS>ATOM
      1 O1        -10.5328   -3.8772   54.6744 O.2     1  ZINC000033150761   -0.5000
      2 C2        -11.7041   -3.5629   54.6904 C.2     1  ZINC000033150761    0.5200
      3 C3        -12.4612   -3.4107   53.3963 C.3     1  ZINC000033150761   -0.1300
      4 C4        -12.4179   -1.9481   52.9490 C.3     1  ZINC000033150761   -0.0100
      5 C5        -11.0100   -1.5856   52.5522 C.2     1  ZINC000033150761    0.1800
      6 N6        -10.4257   -0.4270   52.7292 N.2     1  ZINC000033150761   -0.4400
      7 C7         -9.1802   -0.5671   52.2221 C.2     1  ZINC000033150761    0.2200
      8 C8         -8.1217    0.4735   52.1845 C.ar    1  ZINC000033150761    0.1900
      9 C9         -6.8741    0.1698   51.6465 C.ar    1  ZINC000033150761   -0.1300
     10 C10        -5.8965    1.1506   51.6181 C.ar    1  ZINC000033150761   -0.0700
     11 C11        -6.2009    2.4032   52.1297 C.ar    1  ZINC000033150761   -0.1500
     12 C12        -7.4620    2.6354   52.6494 C.ar    1  ZINC000033150761    0.1100
     13 N13        -8.3746    1.6860   52.6589 N.ar    1  ZINC000033150761   -0.4500
     14 N14        -9.0822   -1.7902   51.7714 N.2     1  ZINC000033150761   -0.3600
     15 O15       -10.1208   -2.3880   51.9587 O.3     1  ZINC000033150761    0.0900
     16 N16       -12.3302   -3.3553   55.8657 N.am    1  ZINC000033150761   -0.6200
     17 C17       -11.6321   -3.4957   57.0590 C.2     1  ZINC000033150761    0.2700
     18 N18       -11.5263   -2.5859   57.9767 N.2     1  ZINC000033150761   -0.5000
     19 C19       -10.8184   -2.8967   59.0536 C.2     1  ZINC000033150761    0.1200
     20 C20       -10.6219   -1.9456   60.1748 C.ar    1  ZINC000033150761    0.0000
     21 C21       -11.5683   -0.9535   60.4235 C.ar    1  ZINC000033150761   -0.0800
     22 C22       -11.3826   -0.0703   61.4679 C.ar    1  ZINC000033150761   -0.1200
     23 C23       -10.2577   -0.1683   62.2691 C.ar    1  ZINC000033150761    0.0700
     24 F24       -10.0803    0.6983   63.2902 F       1  ZINC000033150761   -0.1300
     25 C25        -9.3121   -1.1546   62.0265 C.ar    1  ZINC000033150761    0.0700
     26 F26        -8.2162   -1.2467   62.8113 F       1  ZINC000033150761   -0.1300
     27 C27        -9.4928   -2.0455   60.9862 C.ar    1  ZINC000033150761   -0.1000
     28 C28       -10.2910   -4.1339   59.0595 C.2     1  ZINC000033150761   -0.2800
     29 S29       -10.7594   -4.9395   57.5639 S.3     1  ZINC000033150761    0.2200
     30 H30       -12.0034   -4.0382   52.6315 H       1  ZINC000033150761    0.1200
     31 H31       -13.4974   -3.7151   53.5435 H       1  ZINC000033150761    0.1200
     32 H32       -13.0829   -1.8090   52.0967 H       1  ZINC000033150761    0.1300
     33 H33       -12.7405   -1.3076   53.7698 H       1  ZINC000033150761    0.1200
     34 H34        -6.6714   -0.8169   51.2569 H       1  ZINC000033150761    0.1400
     35 H35        -4.9193    0.9444   51.2072 H       1  ZINC000033150761    0.1500
     36 H36        -5.4607    3.1896   52.1227 H       1  ZINC000033150761    0.1400
     37 H37        -7.7026    3.6096   53.0486 H       1  ZINC000033150761    0.1700
     38 H38       -13.2680   -3.1078   55.8786 H       1  ZINC000033150761    0.4300
     39 H39       -12.4461   -0.8753   59.7992 H       1  ZINC000033150761    0.1400
     40 H40       -12.1159    0.6988   61.6603 H       1  ZINC000033150761    0.1500
     41 H41        -8.7570   -2.8132   60.7973 H       1  ZINC000033150761    0.1600
     42 H42        -9.6883   -4.5614   59.8471 H       1  ZINC000033150761    0.1800
@<TRIPOS>BOND
     1     1     2    2
     2     2     3    1
     3     2    16   am
     4     3     4    1
     5     3    30    1
     6     3    31    1
     7     4     5    1
     8     4    32    1
     9     4    33    1
    10     5    15    1
    11     5     6    2
    12     6     7    1
    13     7     8    1
    14     7    14    2
    15     8    13   ar
    16     8     9   ar
    17     9    10   ar
    18     9    34    1
    19    10    11   ar
    20    10    35    1
    21    11    12   ar
    22    11    36    1
    23    12    13   ar
    24    12    37    1
    25    14    15    1
    26    16    17    1
    27    16    38    1
    28    17    29    1
    29    17    18    2
    30    18    19    1
    31    19    20    1
    32    19    28    2
    33    20    27   ar
    34    20    21   ar
    35    21    22   ar
    36    21    39    1
    37    22    23   ar
    38    22    40    1
    39    23    24    1
    40    23    25   ar
    41    25    26    1
    42    25    27   ar
    43    27    41    1
    44    28    29    1
    45    28    42    1
@<TRIPOS>SUBSTRUCTURE
     1 ZINC000033150761        1 TEMP              0 ****  ****    0 ROOT


##########                                Name:    ZINC000623695407
##########                DOCK_Rotatable_Bonds:                  10
##########                         Heavy_Atoms:                  27
##########                    Molecular_Weight:             368.479
##########                DOCK_Rotatable_Bonds:                  10
##########                       Formal_Charge:           0.0299989
##########                     HBond_Acceptors:                   6
##########                        HBond_Donors:                   2
##########                         Heavy_Atoms:                  27
##########                          Grid_Score:          -37.085068
##########                     Grid_vdw_energy:          -33.043934
##########                      Grid_es_energy:           -4.041134
##########           Internal_energy_repulsive:           12.439898

@<TRIPOS>MOLECULE
ZINC000623695407
 55 57 1 0 0
SMALL
USER_CHARGES


@<TRIPOS>ATOM
      1 C1        -14.3329   -5.4577   55.7651 C.3     1  ZINC000623695407    0.0300
      2 O2        -13.0856   -5.0185   55.2233 O.3     1  ZINC000623695407   -0.3200
      3 C3        -12.2532   -4.3436   56.0591 C.ar    1  ZINC000623695407    0.1300
      4 C4        -11.6024   -5.0159   57.0834 C.ar    1  ZINC000623695407   -0.2100
      5 C5        -10.7564   -4.3277   57.9315 C.ar    1  ZINC000623695407   -0.0600
      6 C6        -10.5584   -2.9700   57.7602 C.ar    1  ZINC000623695407   -0.1100
      7 C7         -9.6353   -2.2216   58.6870 C.3     1  ZINC000623695407    0.0600
      8 N8        -10.4287   -1.3865   59.5988 N.3     1  ZINC000623695407   -0.4600
      9 C9        -10.1662   -1.7434   61.0055 C.3     1  ZINC000623695407    0.0000
     10 C10       -10.1706   -0.2428   61.3289 C.3     1  ZINC000623695407   -0.1300
     11 C11        -9.7553   -0.1002   59.8580 C.3     1  ZINC000623695407    0.0100
     12 H12        -8.6766   -0.1363   59.7058 H       1  ZINC000623695407    0.0900
     13 C13       -10.4131    1.0868   59.1512 C.3     1  ZINC000623695407    0.1600
     14 N14        -9.3919    2.0817   58.8145 N.am    1  ZINC000623695407   -0.7400
     15 C15        -8.5911    1.8909   57.7474 C.2     1  ZINC000623695407    0.7100
     16 O16        -8.7153    0.8923   57.0649 O.2     1  ZINC000623695407   -0.5900
     17 N17        -7.6527    2.8071   57.4367 N.am    1  ZINC000623695407   -0.7400
     18 C18        -6.7811    2.5987   56.2777 C.3     1  ZINC000623695407    0.1700
     19 H19        -6.3119    1.6174   56.3477 H       1  ZINC000623695407    0.0900
     20 C20        -7.6112    2.6769   54.9948 C.3     1  ZINC000623695407   -0.1600
     21 C21        -5.6995    3.6806   56.2521 C.3     1  ZINC000623695407   -0.0900
     22 C22        -4.6298    3.3454   57.2593 C.ar    1  ZINC000623695407   -0.0300
     23 C23        -3.9715    2.1259   57.2161 C.ar    1  ZINC000623695407   -0.1700
     24 C24        -2.9959    1.8536   58.1565 C.ar    1  ZINC000623695407    0.1000
     25 N25        -2.6901    2.7372   59.0864 N.ar    1  ZINC000623695407   -0.4900
     26 C26        -3.2953    3.9066   59.1577 C.ar    1  ZINC000623695407    0.1000
     27 C27        -4.2766    4.2514   58.2477 C.ar    1  ZINC000623695407   -0.1700
     28 C28       -11.2055   -2.2979   56.7397 C.ar    1  ZINC000623695407   -0.0700
     29 C29       -12.0484   -2.9825   55.8859 C.ar    1  ZINC000623695407   -0.1500
     30 H30       -14.8994   -5.9812   54.9950 H       1  ZINC000623695407    0.1000
     31 H31       -14.1484   -6.1316   56.6018 H       1  ZINC000623695407    0.0600
     32 H32       -14.9021   -4.5953   56.1120 H       1  ZINC000623695407    0.0600
     33 H33       -11.7573   -6.0761   57.2180 H       1  ZINC000623695407    0.1300
     34 H34       -10.2495   -4.8505   58.7290 H       1  ZINC000623695407    0.1200
     35 H35        -9.0464   -2.9331   59.2658 H       1  ZINC000623695407    0.0600
     36 H36        -8.9683   -1.5884   58.1022 H       1  ZINC000623695407    0.0700
     37 H37       -10.9839   -2.2910   61.4743 H       1  ZINC000623695407    0.0900
     38 H38        -9.1972   -2.2181   61.1595 H       1  ZINC000623695407    0.0700
     39 H39       -11.1570    0.1621   61.5556 H       1  ZINC000623695407    0.1000
     40 H40        -9.4037    0.0625   62.0408 H       1  ZINC000623695407    0.0800
     41 H41       -10.8995    0.7421   58.2386 H       1  ZINC000623695407    0.0700
     42 H42       -11.1552    1.5366   59.8109 H       1  ZINC000623695407    0.0700
     43 H43        -9.2921    2.8778   59.3596 H       1  ZINC000623695407    0.3900
     44 H44        -7.5545    3.6043   57.9804 H       1  ZINC000623695407    0.3900
     45 H45        -6.9625    2.5220   54.1325 H       1  ZINC000623695407    0.0700
     46 H46        -8.3816    1.9062   55.0131 H       1  ZINC000623695407    0.0700
     47 H47        -8.0804    3.6582   54.9249 H       1  ZINC000623695407    0.0600
     48 H48        -5.2585    3.7300   55.2565 H       1  ZINC000623695407    0.1000
     49 H49        -6.1436    4.6444   56.5009 H       1  ZINC000623695407    0.0800
     50 H50        -4.2180    1.3979   56.4575 H       1  ZINC000623695407    0.1300
     51 H51        -2.4784    0.9060   58.1298 H       1  ZINC000623695407    0.1500
     52 H52        -3.0180    4.6047   59.9338 H       1  ZINC000623695407    0.1600
     53 H53        -4.7685    5.2108   58.3110 H       1  ZINC000623695407    0.1400
     54 H54       -11.0489   -1.2374   56.6079 H       1  ZINC000623695407    0.1200
     55 H55       -12.5536   -2.4571   55.0890 H       1  ZINC000623695407    0.1300
@<TRIPOS>BOND
     1     1     2    1
     2     1    30    1
     3     1    31    1
     4     1    32    1
     5     2     3    1
     6     3    29   ar
     7     3     4   ar
     8     4     5   ar
     9     4    33    1
    10     5     6   ar
    11     5    34    1
    12     6     7    1
    13     6    28   ar
    14     7     8    1
    15     7    35    1
    16     7    36    1
    17     8    11    1
    18     8     9    1
    19     9    10    1
    20     9    37    1
    21     9    38    1
    22    10    11    1
    23    10    39    1
    24    10    40    1
    25    11    12    1
    26    11    13    1
    27    13    14    1
    28    13    41    1
    29    13    42    1
    30    14    15   am
    31    14    43    1
    32    15    16    2
    33    15    17   am
    34    17    18    1
    35    17    44    1
    36    18    19    1
    37    18    20    1
    38    18    21    1
    39    20    45    1
    40    20    46    1
    41    20    47    1
    42    21    22    1
    43    21    48    1
    44    21    49    1
    45    22    27   ar
    46    22    23   ar
    47    23    24   ar
    48    23    50    1
    49    24    25   ar
    50    24    51    1
    51    25    26   ar
    52    26    27   ar
    53    26    52    1
    54    27    53    1
    55    28    29   ar
    56    28    54    1
    57    29    55    1
@<TRIPOS>SUBSTRUCTURE
     1 ZINC000623695407        1 TEMP              0 ****  ****    0 ROOT


##########                                Name:     oleObject15.pdb
##########                DOCK_Rotatable_Bonds:                   9
##########                         Heavy_Atoms:                  29
##########                    Molecular_Weight:             395.545
##########                DOCK_Rotatable_Bonds:                   9
##########                       Formal_Charge:         0.000700183
##########                     HBond_Acceptors:                   5
##########                        HBond_Donors:                   1
##########                         Heavy_Atoms:                  29
##########                          Grid_Score:          -37.021572
##########                     Grid_vdw_energy:          -35.928795
##########                      Grid_es_energy:           -1.092777
##########           Internal_energy_repulsive:           12.565620

@<TRIPOS>MOLECULE
oleObject15.pdb
 62 64 1 0 0
SMALL
NO_CHARGES


@<TRIPOS>ATOM
      1 O         -11.3019   -3.8265   55.2884 O.3     1  UNL        -0.3745
      2 C         -12.0629   -4.0341   56.4997 C.3     1  UNL         0.0600
      3 C         -11.1164   -4.5952   57.5862 C.3     1  UNL         0.0217
      4 N         -10.2114   -3.5914   58.1933 N.4     1  UNL        -0.3010
      5 C         -10.6926   -2.1934   58.1085 C.3     1  UNL        -0.0010
      6 C          -9.6441   -1.1918   58.6396 C.3     1  UNL        -0.0289
      7 C          -9.1618   -1.5289   60.0710 C.3     1  UNL         0.0382
      8 C          -8.7470   -3.0197   60.1545 C.3     1  UNL        -0.0289
      9 C          -9.7985   -3.9839   59.5573 C.3     1  UNL        -0.0010
     10 C         -10.2209   -1.1511   61.1362 C.2     1  UNL         0.2156
     11 O         -11.2395   -1.8002   61.2904 O.2     1  UNL        -0.2774
     12 N          -9.9972   -0.0702   61.9795 N.am    1  UNL        -0.3025
     13 C         -10.8805    0.4381   63.0457 C.3     1  UNL         0.0900
     14 C         -10.1338    0.7399   64.3438 C.ar    1  UNL        -0.0217
     15 C         -10.8064    1.2618   65.4673 C.ar    1  UNL        -0.0568
     16 C         -10.1022    1.5452   66.6489 C.ar    1  UNL        -0.0619
     17 C          -8.7209    1.3062   66.7185 C.ar    1  UNL        -0.0622
     18 C          -8.0450    0.7810   65.6061 C.ar    1  UNL        -0.0619
     19 C          -8.7494    0.4974   64.4247 C.ar    1  UNL        -0.0568
     20 C         -11.6770    1.6556   62.5856 C.ar    1  UNL         0.0652
     21 C         -11.1039    2.6501   61.7663 C.ar    1  UNL        -0.0383
     22 C         -11.8856    3.7516   61.3831 C.ar    1  UNL        -0.0588
     23 C         -13.2131    3.8215   61.8334 C.ar    1  UNL        -0.0438
     24 C         -13.7044    2.7875   62.6486 C.ar    1  UNL         0.0272
     25 N         -12.9550    1.7289   63.0178 N.ar    1  UNL        -0.2590
     26 C         -11.9514   -3.2642   54.1235 C.3     1  UNL         0.0599
     27 C         -12.0148   -1.7219   54.2572 C.3     1  UNL        -0.0364
     28 C         -11.0461   -3.6542   52.9331 C.3     1  UNL        -0.0364
     29 C         -13.3597   -3.8855   53.9485 C.3     1  UNL        -0.0364
     30 H         -12.8679   -4.7581   56.3255 H       1  UNL         0.0581
     31 H         -12.5151   -3.1011   56.8532 H       1  UNL         0.0581
     32 H         -10.5150   -5.3889   57.1247 H       1  UNL         0.0455
     33 H         -11.7241   -5.0618   58.3718 H       1  UNL         0.0455
     34 H         -11.6227   -2.0855   58.6813 H       1  UNL         0.0431
     35 H         -10.9085   -1.9248   57.0679 H       1  UNL         0.0431
     36 H         -10.0547   -0.1761   58.6047 H       1  UNL         0.0288
     37 H          -8.7798   -1.2031   57.9628 H       1  UNL         0.0288
     38 H          -8.2508   -0.9527   60.2527 H       1  UNL         0.0402
     39 H          -8.5377   -3.2944   61.1961 H       1  UNL         0.0288
     40 H          -7.8083   -3.1528   59.6013 H       1  UNL         0.0288
     41 H         -10.6776   -4.0161   60.2129 H       1  UNL         0.0431
     42 H          -9.3696   -4.9941   59.5377 H       1  UNL         0.0431
     43 H          -9.0821    0.3559   61.9084 H       1  UNL         0.1504
     44 H         -11.6139   -0.3521   63.2510 H       1  UNL         0.0624
     45 H         -11.8736    1.4584   65.4242 H       1  UNL         0.0626
     46 H         -10.6269    1.9518   67.5088 H       1  UNL         0.0623
     47 H          -8.1761    1.5260   67.6323 H       1  UNL         0.0623
     48 H          -6.9763    0.5931   65.6592 H       1  UNL         0.0623
     49 H          -8.2171    0.0899   63.5697 H       1  UNL         0.0626
     50 H         -10.0735    2.5717   61.4332 H       1  UNL         0.0643
     51 H         -11.4717    4.5331   60.7523 H       1  UNL         0.0624
     52 H         -13.8486    4.6580   61.5581 H       1  UNL         0.0639
     53 H         -14.7290    2.8072   63.0180 H       1  UNL         0.0840
     54 H         -11.0292   -1.3118   54.5122 H       1  UNL         0.0260
     55 H         -12.7262   -1.4125   55.0324 H       1  UNL         0.0260
     56 H         -12.3378   -1.2641   53.3138 H       1  UNL         0.0260
     57 H         -10.0348   -3.2474   53.0619 H       1  UNL         0.0260
     58 H         -11.4491   -3.2685   51.9881 H       1  UNL         0.0260
     59 H         -10.9631   -4.7452   52.8464 H       1  UNL         0.0260
     60 H         -14.0448   -3.5588   54.7405 H       1  UNL         0.0260
     61 H         -13.3083   -4.9816   53.9690 H       1  UNL         0.0260
     62 H         -13.7990   -3.5856   52.9887 H       1  UNL         0.0260
@<TRIPOS>BOND
     1     1     2    1
     2     1    26    1
     3     2     3    1
     4     2    30    1
     5     2    31    1
     6     3     4    1
     7     3    32    1
     8     3    33    1
     9     4     5    1
    10     4     9    1
    11     5     6    1
    12     5    34    1
    13     5    35    1
    14     6     7    1
    15     6    36    1
    16     6    37    1
    17     7     8    1
    18     7    10    1
    19     7    38    1
    20     8     9    1
    21     8    39    1
    22     8    40    1
    23     9    41    1
    24     9    42    1
    25    10    11    2
    26    10    12   am
    27    12    13    1
    28    12    43    1
    29    13    14    1
    30    13    20    1
    31    13    44    1
    32    14    15   ar
    33    14    19   ar
    34    15    16   ar
    35    15    45    1
    36    16    17   ar
    37    16    46    1
    38    17    18   ar
    39    17    47    1
    40    18    19   ar
    41    18    48    1
    42    19    49    1
    43    20    21   ar
    44    20    25   ar
    45    21    22   ar
    46    21    50    1
    47    22    23   ar
    48    22    51    1
    49    23    24   ar
    50    23    52    1
    51    24    25   ar
    52    24    53    1
    53    26    27    1
    54    26    28    1
    55    26    29    1
    56    27    54    1
    57    27    55    1
    58    27    56    1
    59    28    57    1
    60    28    58    1
    61    28    59    1
    62    29    60    1
    63    29    61    1
    64    29    62    1
@<TRIPOS>SUBSTRUCTURE
     1 UNL         1 TEMP              0 ****  ****    0 ROOT


##########                                Name:    ZINC000434204837
##########                DOCK_Rotatable_Bonds:                   7
##########                         Heavy_Atoms:                  29
##########                    Molecular_Weight:             406.511
##########                DOCK_Rotatable_Bonds:                   7
##########                       Formal_Charge:          -0.0200002
##########                     HBond_Acceptors:                   8
##########                        HBond_Donors:                   0
##########                         Heavy_Atoms:                  29
##########                          Grid_Score:          -36.998180
##########                     Grid_vdw_energy:          -38.136944
##########                      Grid_es_energy:            1.138764
##########           Internal_energy_repulsive:           15.996326

@<TRIPOS>MOLECULE
ZINC000434204837
 51 54 1 0 0
SMALL
USER_CHARGES


@<TRIPOS>ATOM
      1 C1         -8.3868    0.1306   52.7109 C.3     1  ZINC000434204837   -0.1300
      2 C2         -9.6642   -0.6604   52.5934 C.ar    1  ZINC000434204837   -0.0700
      3 C3         -9.6226   -1.9867   52.2069 C.ar    1  ZINC000434204837   -0.1200
      4 C4        -10.7946   -2.7123   52.0991 C.ar    1  ZINC000434204837   -0.1100
      5 C5        -12.0076   -2.1115   52.3780 C.ar    1  ZINC000434204837   -0.1300
      6 C6        -12.0491   -0.7850   52.7654 C.ar    1  ZINC000434204837   -0.0900
      7 C7        -10.8772   -0.0608   52.8775 C.ar    1  ZINC000434204837   -0.1000
      8 C8        -10.9224    1.3851   53.2997 C.3     1  ZINC000434204837    0.0100
      9 C9        -10.3543    1.5209   54.6889 C.2     1  ZINC000434204837    0.2000
     10 N10       -10.1416    0.5497   55.5439 N.2     1  ZINC000434204837   -0.4600
     11 C11        -9.6307    1.1379   56.6402 C.2     1  ZINC000434204837    0.1700
     12 C12        -9.2160    0.4454   57.9128 C.3     1  ZINC000434204837   -0.0300
     13 S13       -10.6616    0.2280   58.9801 S.3     1  ZINC000434204837    0.0900
     14 C14       -10.0066   -0.9109   60.1542 C.2     1  ZINC000434204837    0.2100
     15 N15        -9.2679   -0.6158   61.2022 N.2     1  ZINC000434204837   -0.3300
     16 N16        -8.9589   -1.6811   61.8493 N.2     1  ZINC000434204837   -0.0200
     17 N17        -9.4660   -2.7182   61.2760 N.2     1  ZINC000434204837   -0.0700
     18 N18       -10.1734   -2.2575   60.1518 N.pl3   1  ZINC000434204837   -0.3100
     19 C19       -10.8904   -3.0252   59.2231 C.ar    1  ZINC000434204837    0.1100
     20 C20       -10.3168   -4.1620   58.6698 C.ar    1  ZINC000434204837   -0.1100
     21 C21       -11.0256   -4.9166   57.7555 C.ar    1  ZINC000434204837   -0.0900
     22 C22       -12.3053   -4.5404   57.3909 C.ar    1  ZINC000434204837   -0.0600
     23 C23       -13.0761   -5.3659   56.3930 C.3     1  ZINC000434204837   -0.0600
     24 C24       -14.4608   -5.6878   56.9587 C.3     1  ZINC000434204837   -0.1500
     25 C25       -13.2280   -4.5794   55.0895 C.3     1  ZINC000434204837   -0.1500
     26 C26       -12.8794   -3.4087   57.9402 C.ar    1  ZINC000434204837   -0.1000
     27 C27       -12.1775   -2.6534   58.8592 C.ar    1  ZINC000434204837   -0.0900
     28 N28        -9.5600    2.4131   56.4004 N.2     1  ZINC000434204837   -0.3600
     29 O29        -9.9655    2.6532   55.2827 O.3     1  ZINC000434204837    0.0900
     30 H30        -7.9911    0.0334   53.7219 H       1  ZINC000434204837    0.0800
     31 H31        -7.6566   -0.2502   51.9968 H       1  ZINC000434204837    0.0700
     32 H32        -8.5888    1.1806   52.4993 H       1  ZINC000434204837    0.0700
     33 H33        -8.6748   -2.4562   51.9890 H       1  ZINC000434204837    0.1300
     34 H34       -10.7621   -3.7486   51.7964 H       1  ZINC000434204837    0.1200
     35 H35       -12.9231   -2.6781   52.2931 H       1  ZINC000434204837    0.1300
     36 H36       -12.9970   -0.3154   52.9831 H       1  ZINC000434204837    0.1300
     37 H37       -10.3332    1.9849   52.6059 H       1  ZINC000434204837    0.1200
     38 H38       -11.9554    1.7331   53.2941 H       1  ZINC000434204837    0.1200
     39 H39        -8.7908   -0.5295   57.6740 H       1  ZINC000434204837    0.1300
     40 H40        -8.4707    1.0502   58.4292 H       1  ZINC000434204837    0.1400
     41 H41        -9.3170   -4.4558   58.9537 H       1  ZINC000434204837    0.1400
     42 H42       -10.5799   -5.8009   57.3248 H       1  ZINC000434204837    0.1400
     43 H43       -12.5390   -6.2938   56.1970 H       1  ZINC000434204837    0.0800
     44 H44       -14.9979   -4.7598   57.1547 H       1  ZINC000434204837    0.0600
     45 H45       -15.0183   -6.2849   56.2370 H       1  ZINC000434204837    0.0600
     46 H46       -14.3526   -6.2481   57.8875 H       1  ZINC000434204837    0.0600
     47 H47       -12.2416   -4.3500   54.6864 H       1  ZINC000434204837    0.0600
     48 H48       -13.7855   -5.1764   54.3678 H       1  ZINC000434204837    0.0600
     49 H49       -13.7652   -3.6515   55.2855 H       1  ZINC000434204837    0.0600
     50 H50       -13.8789   -3.1172   57.6531 H       1  ZINC000434204837    0.1400
     51 H51       -12.6264   -1.7696   59.2879 H       1  ZINC000434204837    0.1400
@<TRIPOS>BOND
     1     1     2    1
     2     1    30    1
     3     1    31    1
     4     1    32    1
     5     2     7   ar
     6     2     3   ar
     7     3     4   ar
     8     3    33    1
     9     4     5   ar
    10     4    34    1
    11     5     6   ar
    12     5    35    1
    13     6     7   ar
    14     6    36    1
    15     7     8    1
    16     8     9    1
    17     8    37    1
    18     8    38    1
    19     9    29    1
    20     9    10    2
    21    10    11    1
    22    11    12    1
    23    11    28    2
    24    12    13    1
    25    12    39    1
    26    12    40    1
    27    13    14    1
    28    14    18    1
    29    14    15    2
    30    15    16    1
    31    16    17    2
    32    17    18    1
    33    18    19    1
    34    19    27   ar
    35    19    20   ar
    36    20    21   ar
    37    20    41    1
    38    21    22   ar
    39    21    42    1
    40    22    23    1
    41    22    26   ar
    42    23    24    1
    43    23    25    1
    44    23    43    1
    45    24    44    1
    46    24    45    1
    47    24    46    1
    48    25    47    1
    49    25    48    1
    50    25    49    1
    51    26    27   ar
    52    26    50    1
    53    27    51    1
    54    28    29    1
@<TRIPOS>SUBSTRUCTURE
     1 ZINC000434204837        1 TEMP              0 ****  ****    0 ROOT


##########                                Name:    ZINC000193795672
##########                DOCK_Rotatable_Bonds:                  10
##########                         Heavy_Atoms:                  23
##########                    Molecular_Weight:              332.47
##########                DOCK_Rotatable_Bonds:                  10
##########                       Formal_Charge:        -2.98023e-07
##########                     HBond_Acceptors:                   6
##########                        HBond_Donors:                   3
##########                         Heavy_Atoms:                  23
##########                          Grid_Score:          -36.962296
##########                     Grid_vdw_energy:          -33.896191
##########                      Grid_es_energy:           -3.066106
##########           Internal_energy_repulsive:            9.408321

@<TRIPOS>MOLECULE
ZINC000193795672
 47 48 1 0 0
SMALL
USER_CHARGES


@<TRIPOS>ATOM
      1 C1        -13.5563   -4.8109   54.6215 C.3     1  <0>        -0.1000
      2 C2        -12.7691   -4.1389   55.7169 C.ar    1  <0>        -0.2000
      3 C3        -12.2253   -2.8773   55.5168 C.ar    1  <0>        -0.0300
      4 C4        -11.5099   -2.2956   56.5482 C.ar    1  <0>        -0.2400
      5 C5        -11.3606   -2.9904   57.7439 C.ar    1  <0>         0.4000
      6 N6        -10.6443   -2.4178   58.7885 N.pl3   1  <0>        -0.7300
      7 C7         -9.8991   -3.2692   59.7191 C.3     1  <0>         0.1300
      8 C8         -8.8291   -2.4360   60.4274 C.3     1  <0>        -0.1400
      9 C9         -9.5003   -1.4653   61.4012 C.3     1  <0>         0.1400
     10 N10        -8.6009   -1.2035   62.5276 N.am    1  <0>        -0.7500
     11 C11        -9.0455   -0.5189   63.5999 C.2     1  <0>         0.7100
     12 O12       -10.1936   -0.1199   63.6332 O.2     1  <0>        -0.5900
     13 N13        -8.2176   -0.2767   64.6355 N.am    1  <0>        -0.7400
     14 C14        -8.7005    0.4691   65.8003 C.3     1  <0>         0.1700
     15 H15        -9.7888    0.5209   65.7730 H       1  <0>         0.0900
     16 C16        -8.2556   -0.2409   67.0806 C.3     1  <0>        -0.1700
     17 C17        -8.1217    1.8852   65.7751 C.3     1  <0>        -0.0600
     18 C18        -6.6241    1.8185   65.9292 C.2     1  <0>        -0.1700
     19 C19        -5.7678    1.4597   64.9715 C.2     1  <0>        -0.1400
     20 C20        -4.4351    1.4736   65.3455 C.2     1  <0>        -0.1300
     21 C21        -4.2091    1.8437   66.6069 C.2     1  <0>        -0.2100
     22 S22        -5.7374    2.2093   67.3971 S.3     1  <0>         0.0900
     23 N23       -11.8951   -4.1924   57.8961 N.ar    1  <0>        -0.5400
     24 C24       -12.5863   -4.7694   56.9315 C.ar    1  <0>         0.1500
     25 H25       -14.6083   -4.5403   54.7117 H       1  <0>         0.0700
     26 H26       -13.1796   -4.4861   53.6516 H       1  <0>         0.0600
     27 H27       -13.4505   -5.8922   54.7089 H       1  <0>         0.0700
     28 H28       -12.3573   -2.3617   54.5770 H       1  <0>         0.1300
     29 H29       -11.0730   -1.3154   56.4265 H       1  <0>         0.1300
     30 H30       -10.6378   -1.4543   58.9012 H       1  <0>         0.4000
     31 H31       -10.5836   -3.6856   60.4581 H       1  <0>         0.0700
     32 H32        -9.4225   -4.0797   59.1678 H       1  <0>         0.0700
     33 H33        -8.1590   -3.0969   60.9773 H       1  <0>         0.0800
     34 H34        -8.2587   -1.8731   59.6886 H       1  <0>         0.0800
     35 H35        -9.7210   -0.5298   60.8874 H       1  <0>         0.0700
     36 H36       -10.4271   -1.9042   61.7707 H       1  <0>         0.0700
     37 H37        -7.6853   -1.5229   62.5016 H       1  <0>         0.4000
     38 H38        -7.3020   -0.5960   64.6094 H       1  <0>         0.3900
     39 H39        -7.1672   -0.2927   67.1080 H       1  <0>         0.0600
     40 H40        -8.6148    0.3140   67.9474 H       1  <0>         0.0700
     41 H41        -8.6680   -1.2497   67.0987 H       1  <0>         0.0700
     42 H42        -8.3685    2.3617   64.8264 H       1  <0>         0.1000
     43 H43        -8.5458    2.4657   66.5944 H       1  <0>         0.0800
     44 H44        -6.0898    1.1794   63.9795 H       1  <0>         0.1400
     45 H45        -3.6386    1.2048   64.6674 H       1  <0>         0.1400
     46 H46        -3.2363    1.9119   67.0710 H       1  <0>         0.1600
     47 H47       -13.0077   -5.7508   57.0915 H       1  <0>         0.1500
@<TRIPOS>BOND
     1     1     2    1
     2     1    25    1
     3     1    26    1
     4     1    27    1
     5     2    24   ar
     6     2     3   ar
     7     3     4   ar
     8     3    28    1
     9     4     5   ar
    10     4    29    1
    11     5     6    1
    12     5    23   ar
    13     6     7    1
    14     6    30    1
    15     7     8    1
    16     7    31    1
    17     7    32    1
    18     8     9    1
    19     8    33    1
    20     8    34    1
    21     9    10    1
    22     9    35    1
    23     9    36    1
    24    10    11   am
    25    10    37    1
    26    11    12    2
    27    11    13   am
    28    13    14    1
    29    13    38    1
    30    14    15    1
    31    14    16    1
    32    14    17    1
    33    16    39    1
    34    16    40    1
    35    16    41    1
    36    17    18    1
    37    17    42    1
    38    17    43    1
    39    18    22    1
    40    18    19    2
    41    19    20    1
    42    19    44    1
    43    20    21    2
    44    20    45    1
    45    21    22    1
    46    21    46    1
    47    23    24   ar
    48    24    47    1
@<TRIPOS>SUBSTRUCTURE
     1 <0>         1 TEMP              0 ****  ****    0 ROOT


##########                                Name:    ZINC000561219098
##########                DOCK_Rotatable_Bonds:                   4
##########                         Heavy_Atoms:                  28
##########                    Molecular_Weight:             423.273
##########                DOCK_Rotatable_Bonds:                   4
##########                       Formal_Charge:          0.00999953
##########                     HBond_Acceptors:                   9
##########                        HBond_Donors:                   1
##########                         Heavy_Atoms:                  28
##########                          Grid_Score:          -36.952839
##########                     Grid_vdw_energy:          -37.640900
##########                      Grid_es_energy:            0.688059
##########           Internal_energy_repulsive:           11.333273

@<TRIPOS>MOLECULE
ZINC000561219098
 45 48 1 0 0
SMALL
USER_CHARGES


@<TRIPOS>ATOM
      1 C1         -6.3721    1.8336   51.3592 C.3     1  ZINC000561219098    0.0700
      2 N2         -7.2595    0.7009   51.6344 N.pl3   1  ZINC000561219098   -0.4500
      3 C3         -7.0036   -0.6012   51.3184 C.2     1  ZINC000561219098   -0.0100
      4 C4         -8.0445   -1.3521   51.7250 C.2     1  ZINC000561219098   -0.1700
      5 C5         -8.9891   -0.4785   52.3202 C.2     1  ZINC000561219098   -0.1100
      6 C6        -10.2956   -0.8630   52.9128 C.2     1  ZINC000561219098    0.1600
      7 N7        -11.2085   -0.0305   53.3689 N.2     1  ZINC000561219098   -0.2700
      8 N8        -12.2957   -0.7735   53.8451 N.pl3   1  ZINC000561219098   -0.4700
      9 C9        -12.0122   -2.0985   53.6624 C.2     1  ZINC000561219098    0.0300
     10 C10       -12.8780   -3.2338   54.0206 C.2     1  ZINC000561219098    0.5900
     11 O11       -13.6598   -3.6835   53.2047 O.2     1  ZINC000561219098   -0.5000
     12 N12       -12.8043   -3.7748   55.2528 N.am    1  ZINC000561219098   -0.6100
     13 C13       -13.6594   -4.9100   55.6341 C.3     1  ZINC000561219098    0.0500
     14 C14       -14.3460   -4.5732   56.9627 C.3     1  ZINC000561219098    0.0500
     15 O15       -13.3576   -4.1748   57.9156 O.3     1  ZINC000561219098   -0.3700
     16 C16       -12.6399   -2.9922   57.5548 C.3     1  ZINC000561219098    0.1200
     17 H17       -13.3418   -2.1719   57.4046 H       1  ZINC000561219098    0.0900
     18 C18       -11.6747   -2.6337   58.6551 C.ar    1  ZINC000561219098   -0.0500
     19 C19       -10.5879   -3.4474   58.9128 C.ar    1  ZINC000561219098   -0.1000
     20 C20        -9.7008   -3.1182   59.9233 C.ar    1  ZINC000561219098    0.1200
     21 F21        -8.6380   -3.9133   60.1752 F       1  ZINC000561219098   -0.1200
     22 C22        -9.9032   -1.9727   60.6758 C.ar    1  ZINC000561219098   -0.0600
     23 Cl23       -8.7913   -1.5583   61.9430 Cl      1  ZINC000561219098   -0.0300
     24 C24       -10.9914   -1.1593   60.4168 C.ar    1  ZINC000561219098   -0.0700
     25 C25       -11.8740   -1.4868   59.4033 C.ar    1  ZINC000561219098   -0.0300
     26 Cl26      -13.2394   -0.4652   59.0782 Cl      1  ZINC000561219098   -0.0400
     27 C27       -11.8619   -3.2516   56.2547 C.3     1  ZINC000561219098    0.0900
     28 C28       -10.7677   -2.1734   53.0752 C.2     1  ZINC000561219098   -0.1700
     29 C29        -8.4710    0.7767   52.2526 C.2     1  ZINC000561219098    0.0300
     30 H30        -5.6958    1.9785   52.2017 H       1  ZINC000561219098    0.0800
     31 H31        -5.7925    1.6306   50.4587 H       1  ZINC000561219098    0.0900
     32 H32        -6.9678    2.7345   51.2124 H       1  ZINC000561219098    0.0900
     33 H33        -6.1156   -0.9679   50.8250 H       1  ZINC000561219098    0.1700
     34 H34        -8.1417   -2.4224   51.6177 H       1  ZINC000561219098    0.1400
     35 H35       -13.1064   -0.4120   54.2363 H       1  ZINC000561219098    0.4400
     36 H36       -14.4122   -5.0774   54.8638 H       1  ZINC000561219098    0.1000
     37 H37       -13.0493   -5.8055   55.7528 H       1  ZINC000561219098    0.0900
     38 H38       -15.0541   -3.7587   56.8103 H       1  ZINC000561219098    0.0700
     39 H39       -14.8747   -5.4519   57.3322 H       1  ZINC000561219098    0.1200
     40 H40       -10.4309   -4.3405   58.3260 H       1  ZINC000561219098    0.1600
     41 H41       -11.1500   -0.2664   61.0034 H       1  ZINC000561219098    0.1600
     42 H42       -11.0717   -3.9794   56.4387 H       1  ZINC000561219098    0.0900
     43 H43       -11.4265   -2.3192   55.8952 H       1  ZINC000561219098    0.1100
     44 H44       -10.2473   -3.0779   52.7969 H       1  ZINC000561219098    0.1600
     45 H45        -8.9413    1.6776   52.6183 H       1  ZINC000561219098    0.1700
@<TRIPOS>BOND
     1     1     2    1
     2     1    30    1
     3     1    31    1
     4     1    32    1
     5     2    29    1
     6     2     3    1
     7     3     4    2
     8     3    33    1
     9     4     5    1
    10     4    34    1
    11     5     6    1
    12     5    29    2
    13     6    28    1
    14     6     7    2
    15     7     8    1
    16     8     9    1
    17     8    35    1
    18     9    10    1
    19     9    28    2
    20    10    11    2
    21    10    12   am
    22    12    27    1
    23    12    13    1
    24    13    14    1
    25    13    36    1
    26    13    37    1
    27    14    15    1
    28    14    38    1
    29    14    39    1
    30    15    16    1
    31    16    17    1
    32    16    18    1
    33    16    27    1
    34    18    25   ar
    35    18    19   ar
    36    19    20   ar
    37    19    40    1
    38    20    21    1
    39    20    22   ar
    40    22    23    1
    41    22    24   ar
    42    24    25   ar
    43    24    41    1
    44    25    26    1
    45    27    42    1
    46    27    43    1
    47    28    44    1
    48    29    45    1
@<TRIPOS>SUBSTRUCTURE
     1 ZINC000561219098        1 TEMP              0 ****  ****    0 ROOT


##########                                Name:    ZINC001083519372
##########                DOCK_Rotatable_Bonds:                   7
##########                         Heavy_Atoms:                  27
##########                    Molecular_Weight:             370.411
##########                DOCK_Rotatable_Bonds:                   7
##########                       Formal_Charge:           0.0399996
##########                     HBond_Acceptors:                   9
##########                        HBond_Donors:                   2
##########                         Heavy_Atoms:                  27
##########                          Grid_Score:          -36.950871
##########                     Grid_vdw_energy:          -35.395233
##########                      Grid_es_energy:           -1.555639
##########           Internal_energy_repulsive:           11.626822

@<TRIPOS>MOLECULE
ZINC001083519372
 49 52 1 0 0
SMALL
USER_CHARGES


@<TRIPOS>ATOM
      1 C1        -12.6210    0.7488   52.3933 C.3     1  ZINC001083519372   -0.1500
      2 C2        -13.2466   -0.6416   52.5194 C.3     1  ZINC001083519372   -0.0100
      3 C3        -14.0983   -0.9318   51.2819 C.3     1  ZINC001083519372   -0.1500
      4 C4        -12.1556   -1.6751   52.6319 C.2     1  ZINC001083519372   -0.0100
      5 C5        -12.2318   -2.8485   53.2814 C.2     1  ZINC001083519372   -0.0100
      6 C6        -13.4282   -3.3728   54.0329 C.3     1  ZINC001083519372    0.1300
      7 N7        -12.9751   -4.2071   55.1539 N.3     1  ZINC001083519372   -0.5000
      8 C8        -12.1663   -3.4141   56.1147 C.3     1  ZINC001083519372    0.0300
      9 C9        -12.2354   -4.2545   57.4145 C.3     1  ZINC001083519372    0.1500
     10 H10       -11.5180   -5.0746   57.3823 H       1  ZINC001083519372    0.1200
     11 N11       -12.0036   -3.4114   58.5899 N.am    1  ZINC001083519372   -0.6900
     12 C12       -10.7548   -3.2564   59.0724 C.2     1  ZINC001083519372    0.5600
     13 O13        -9.8202   -3.8152   58.5313 O.2     1  ZINC001083519372   -0.5100
     14 C14       -10.5216   -2.4089   60.2569 C.2     1  ZINC001083519372    0.1400
     15 C15        -9.2768   -2.3257   60.8204 C.2     1  ZINC001083519372   -0.1500
     16 C16        -9.0873   -1.5119   61.9453 C.2     1  ZINC001083519372    0.1800
     17 N17       -10.0898   -0.8368   62.4542 N.2     1  ZINC001083519372   -0.4400
     18 C18       -11.3130   -0.9048   61.9185 C.2     1  ZINC001083519372    0.2500
     19 C19       -12.5218   -0.3053   62.2552 C.2     1  ZINC001083519372   -0.2500
     20 C20       -13.4732   -0.7381   61.3465 C.2     1  ZINC001083519372    0.1000
     21 N21       -12.9057   -1.5585   60.4892 N.2     1  ZINC001083519372   -0.3100
     22 N22       -11.5503   -1.6830   60.8127 N.pl3   1  ZINC001083519372   -0.3100
     23 C23       -13.6841   -4.7942   57.4006 C.3     1  ZINC001083519372    0.0900
     24 H24       -13.7073   -5.8247   57.7554 H       1  ZINC001083519372    0.0800
     25 O25       -14.5272   -3.9726   58.2106 O.3     1  ZINC001083519372   -0.5600
     26 C26       -14.1244   -4.7263   55.9267 C.3     1  ZINC001083519372    0.0100
     27 N27       -11.0481   -3.4708   53.1400 N.2     1  ZINC001083519372   -0.4800
     28 C28       -10.2611   -2.7150   52.4287 C.2     1  ZINC001083519372    0.1700
     29 O29       -10.9221   -1.5986   52.0948 O.3     1  ZINC001083519372   -0.2000
     30 H30       -12.0141    0.9555   53.2748 H       1  ZINC001083519372    0.0600
     31 H31       -11.9928    0.7852   51.5032 H       1  ZINC001083519372    0.0600
     32 H32       -13.4100    1.4963   52.3120 H       1  ZINC001083519372    0.0700
     33 H33       -13.8747   -0.6781   53.4095 H       1  ZINC001083519372    0.1000
     34 H34       -13.4703   -0.8954   50.3919 H       1  ZINC001083519372    0.0600
     35 H35       -14.5441   -1.9224   51.3718 H       1  ZINC001083519372    0.0600
     36 H36       -14.8875   -0.1842   51.2006 H       1  ZINC001083519372    0.0700
     37 H37       -14.0123   -2.5359   54.4157 H       1  ZINC001083519372    0.0900
     38 H38       -14.0456   -3.9699   53.3618 H       1  ZINC001083519372    0.0600
     39 H39       -11.1366   -3.3247   55.7687 H       1  ZINC001083519372    0.1000
     40 H40       -12.6083   -2.4298   56.2691 H       1  ZINC001083519372    0.0600
     41 H41       -12.7490   -2.9646   59.0210 H       1  ZINC001083519372    0.4300
     42 H42        -8.4502   -2.8812   60.4027 H       1  ZINC001083519372    0.1800
     43 H43        -8.1086   -1.4404   62.3967 H       1  ZINC001083519372    0.1900
     44 H44       -12.6887    0.3749   63.0773 H       1  ZINC001083519372    0.1700
     45 H45       -14.5136   -0.4486   61.3425 H       1  ZINC001083519372    0.2000
     46 H46       -15.4631   -4.2134   58.1745 H       1  ZINC001083519372    0.3900
     47 H47       -14.9755   -4.0530   55.8240 H       1  ZINC001083519372    0.0700
     48 H48       -14.3906   -5.7222   55.5723 H       1  ZINC001083519372    0.0900
     49 H49        -9.2447   -2.9513   52.1505 H       1  ZINC001083519372    0.2500
@<TRIPOS>BOND
     1     1     2    1
     2     1    30    1
     3     1    31    1
     4     1    32    1
     5     2     3    1
     6     2     4    1
     7     2    33    1
     8     3    34    1
     9     3    35    1
    10     3    36    1
    11     4    29    1
    12     4     5    2
    13     5     6    1
    14     5    27    1
    15     6     7    1
    16     6    37    1
    17     6    38    1
    18     7    26    1
    19     7     8    1
    20     8     9    1
    21     8    39    1
    22     8    40    1
    23     9    10    1
    24     9    11    1
    25     9    23    1
    26    11    12   am
    27    11    41    1
    28    12    13    2
    29    12    14    1
    30    14    22    1
    31    14    15    2
    32    15    16    1
    33    15    42    1
    34    16    17    2
    35    16    43    1
    36    17    18    1
    37    18    22    1
    38    18    19    2
    39    19    20    1
    40    19    44    1
    41    20    21    2
    42    20    45    1
    43    21    22    1
    44    23    24    1
    45    23    25    1
    46    23    26    1
    47    25    46    1
    48    26    47    1
    49    26    48    1
    50    27    28    2
    51    28    29    1
    52    28    49    1
@<TRIPOS>SUBSTRUCTURE
     1 ZINC001083519372        1 TEMP              0 ****  ****    0 ROOT


##########                                Name:    ZINC001058079801
##########                DOCK_Rotatable_Bonds:                   7
##########                         Heavy_Atoms:                  24
##########                    Molecular_Weight:             349.457
##########                DOCK_Rotatable_Bonds:                   7
##########                       Formal_Charge:           0.0200001
##########                     HBond_Acceptors:                   8
##########                        HBond_Donors:                   0
##########                         Heavy_Atoms:                  24
##########                          Grid_Score:          -36.944233
##########                     Grid_vdw_energy:          -34.129108
##########                      Grid_es_energy:           -2.815125
##########           Internal_energy_repulsive:           16.820078

@<TRIPOS>MOLECULE
ZINC001058079801
 47 49 1 0 0
SMALL
USER_CHARGES


@<TRIPOS>ATOM
      1 C1        -13.5033   -3.9754   54.3348 C.3     1  ZINC001058079801   -0.1500
      2 C2        -14.0880   -5.1370   55.1409 C.3     1  ZINC001058079801   -0.1200
      3 C3        -14.3036   -4.6947   56.5896 C.3     1  ZINC001058079801   -0.0300
      4 C4        -12.9713   -4.3951   57.2270 C.2     1  ZINC001058079801    0.2900
      5 N5        -11.9351   -5.1499   57.0033 N.2     1  ZINC001058079801   -0.4800
      6 S6        -10.6639   -4.4667   57.9008 S.3     1  ZINC001058079801    0.1900
      7 C7        -11.6194   -3.1814   58.5361 C.2     1  ZINC001058079801    0.2700
      8 N8        -11.2144   -2.1762   59.3955 N.3     1  ZINC001058079801   -0.4300
      9 C9         -9.7662   -2.2370   59.6313 C.3     1  ZINC001058079801    0.0700
     10 C10        -9.3326   -1.0294   60.4653 C.3     1  ZINC001058079801   -0.1300
     11 C11       -10.0864   -1.0388   61.7982 C.3     1  ZINC001058079801    0.1300
     12 N12        -9.7188    0.1465   62.5768 N.am    1  ZINC001058079801   -0.6100
     13 C13       -10.1112    1.4791   62.1117 C.3     1  ZINC001058079801    0.0700
     14 C14        -9.0196    0.0109   63.7211 C.2     1  ZINC001058079801    0.5200
     15 O15        -8.6962   -1.0925   64.1070 O.2     1  ZINC001058079801   -0.5300
     16 C16        -8.6400    1.2302   64.5212 C.3     1  ZINC001058079801   -0.0600
     17 C17        -8.4821    0.8506   65.9709 C.2     1  ZINC001058079801   -0.1900
     18 C18        -9.4286    0.8462   66.9398 C.2     1  ZINC001058079801   -0.0400
     19 O19        -8.8209    0.4365   68.0621 O.3     1  ZINC001058079801    0.1000
     20 N20        -7.6495    0.2030   67.8736 N.2     1  ZINC001058079801   -0.3600
     21 C21        -7.3130    0.4107   66.6333 C.2     1  ZINC001058079801    0.0000
     22 C22       -11.5927   -1.0238   61.5238 C.3     1  ZINC001058079801   -0.1200
     23 C23       -11.9607   -2.2316   60.6590 C.3     1  ZINC001058079801    0.0400
     24 N24       -12.8175   -3.3611   58.0212 N.2     1  ZINC001058079801   -0.5300
     25 H25       -13.3496   -4.2905   53.3027 H       1  ZINC001058079801    0.0600
     26 H26       -14.1942   -3.1327   54.3584 H       1  ZINC001058079801    0.0600
     27 H27       -12.5495   -3.6756   54.7690 H       1  ZINC001058079801    0.0600
     28 H28       -15.0418   -5.4368   54.7067 H       1  ZINC001058079801    0.0700
     29 H29       -13.3970   -5.9797   55.1173 H       1  ZINC001058079801    0.0700
     30 H30       -14.9245   -3.7990   56.6075 H       1  ZINC001058079801    0.1000
     31 H31       -14.7999   -5.4920   57.1429 H       1  ZINC001058079801    0.0900
     32 H32        -9.5237   -3.1546   60.1672 H       1  ZINC001058079801    0.0600
     33 H33        -9.2420   -2.2255   58.6757 H       1  ZINC001058079801    0.1000
     34 H34        -8.2603   -1.0831   60.6534 H       1  ZINC001058079801    0.0800
     35 H35        -9.5623   -0.1117   59.9239 H       1  ZINC001058079801    0.0800
     36 H36        -9.8259   -1.9373   62.3576 H       1  ZINC001058079801    0.1000
     37 H37       -11.0870    1.7353   62.5243 H       1  ZINC001058079801    0.0600
     38 H38        -9.3737    2.2109   62.4417 H       1  ZINC001058079801    0.0800
     39 H39       -10.1647    1.4828   61.0230 H       1  ZINC001058079801    0.0800
     40 H40        -7.6988    1.6322   64.1461 H       1  ZINC001058079801    0.1100
     41 H41        -9.4208    1.9848   64.4261 H       1  ZINC001058079801    0.1100
     42 H42       -10.4677    1.1189   66.8298 H       1  ZINC001058079801    0.2200
     43 H43        -6.3332    0.2797   66.1982 H       1  ZINC001058079801    0.1900
     44 H44       -12.1351   -1.0736   62.4680 H       1  ZINC001058079801    0.0900
     45 H45       -11.8580   -0.1061   60.9989 H       1  ZINC001058079801    0.0800
     46 H46       -13.0305   -2.2161   60.4499 H       1  ZINC001058079801    0.1000
     47 H47       -11.7079   -3.1492   61.1902 H       1  ZINC001058079801    0.0700
@<TRIPOS>BOND
     1     1     2    1
     2     1    25    1
     3     1    26    1
     4     1    27    1
     5     2     3    1
     6     2    28    1
     7     2    29    1
     8     3     4    1
     9     3    30    1
    10     3    31    1
    11     4    24    1
    12     4     5    2
    13     5     6    1
    14     6     7    1
    15     7     8    1
    16     7    24    2
    17     8    23    1
    18     8     9    1
    19     9    10    1
    20     9    32    1
    21     9    33    1
    22    10    11    1
    23    10    34    1
    24    10    35    1
    25    11    12    1
    26    11    22    1
    27    11    36    1
    28    12    13    1
    29    12    14   am
    30    13    37    1
    31    13    38    1
    32    13    39    1
    33    14    15    2
    34    14    16    1
    35    16    17    1
    36    16    40    1
    37    16    41    1
    38    17    21    1
    39    17    18    2
    40    18    19    1
    41    18    42    1
    42    19    20    1
    43    20    21    2
    44    21    43    1
    45    22    23    1
    46    22    44    1
    47    22    45    1
    48    23    46    1
    49    23    47    1
@<TRIPOS>SUBSTRUCTURE
     1 ZINC001058079801        1 TEMP              0 ****  ****    0 ROOT


##########                                Name:    ZINC000437192871
##########                DOCK_Rotatable_Bonds:                   9
##########                         Heavy_Atoms:                  28
##########                    Molecular_Weight:             423.298
##########                DOCK_Rotatable_Bonds:                   9
##########                       Formal_Charge:         -8.9407e-08
##########                     HBond_Acceptors:                   9
##########                        HBond_Donors:                   1
##########                         Heavy_Atoms:                  28
##########                          Grid_Score:          -36.919308
##########                     Grid_vdw_energy:          -34.826042
##########                      Grid_es_energy:           -2.093265
##########           Internal_energy_repulsive:           14.391724

@<TRIPOS>MOLECULE
ZINC000437192871
 48 50 1 0 0
SMALL
USER_CHARGES


@<TRIPOS>ATOM
      1 C1         -8.4407   -0.0236   64.1478 C.3     1  ZINC000437192871   -0.1700
      2 C2         -9.2456    1.0083   63.3550 C.3     1  ZINC000437192871    0.1300
      3 N3        -10.3296    0.3343   62.6358 N.pl3   1  ZINC000437192871   -0.3600
      4 C4        -10.2685   -0.1452   61.3760 C.2     1  ZINC000437192871    0.0700
      5 C5        -11.4714   -0.6917   61.0838 C.2     1  ZINC000437192871   -0.2700
      6 C6        -11.8547   -1.3477   59.7824 C.3     1  ZINC000437192871    0.1900
      7 N7        -11.1154   -0.7214   58.6835 N.am    1  ZINC000437192871   -0.6000
      8 C8        -11.1319    0.7350   58.5259 C.3     1  ZINC000437192871    0.1100
      9 C9        -12.1051    1.1160   57.4084 C.3     1  ZINC000437192871    0.0600
     10 O10       -12.2472    2.5372   57.3643 O.3     1  ZINC000437192871   -0.5600
     11 C11       -10.4200   -1.4850   57.8177 C.2     1  ZINC000437192871    0.6000
     12 O12        -9.8064   -0.9652   56.9053 O.2     1  ZINC000437192871   -0.5000
     13 C13       -10.4034   -2.9492   57.9763 C.2     1  ZINC000437192871   -0.2200
     14 C14        -9.7007   -3.7039   58.8813 C.2     1  ZINC000437192871    0.0100
     15 C15        -8.7630   -3.1934   59.9449 C.3     1  ZINC000437192871   -0.0800
     16 O16       -10.0107   -4.9789   58.6357 O.3     1  ZINC000437192871    0.1100
     17 N17       -10.7903   -5.1156   57.7250 N.2     1  ZINC000437192871   -0.3200
     18 C18       -11.1447   -3.9683   57.2039 C.2     1  ZINC000437192871    0.0800
     19 C19       -12.0806   -3.7408   56.0766 C.ar    1  ZINC000437192871   -0.0200
     20 C20       -11.6071   -3.2421   54.8645 C.ar    1  ZINC000437192871   -0.0700
     21 C21       -12.4820   -3.0326   53.8182 C.ar    1  ZINC000437192871   -0.1000
     22 C22       -13.8285   -3.3169   53.9702 C.ar    1  ZINC000437192871   -0.0100
     23 Cl23      -14.9231   -3.0513   52.6491 Cl      1  ZINC000437192871   -0.0500
     24 C24       -14.3051   -3.8126   55.1717 C.ar    1  ZINC000437192871   -0.1100
     25 C25       -13.4375   -4.0309   56.2236 C.ar    1  ZINC000437192871    0.0000
     26 Cl26      -14.0357   -4.6530   57.7298 Cl      1  ZINC000437192871   -0.0300
     27 C27       -12.2959   -0.5409   62.2036 C.2     1  ZINC000437192871    0.0600
     28 N28       -11.6105    0.0687   63.1367 N.2     1  ZINC000437192871   -0.2900
     29 H29        -7.6343    0.4778   64.6828 H       1  ZINC000437192871    0.0800
     30 H30        -9.0948   -0.5237   64.8621 H       1  ZINC000437192871    0.0600
     31 H31        -8.0198   -0.7600   63.4632 H       1  ZINC000437192871    0.0700
     32 H32        -9.6665    1.7447   64.0396 H       1  ZINC000437192871    0.1000
     33 H33        -8.5916    1.5083   62.6406 H       1  ZINC000437192871    0.0900
     34 H34        -9.4128   -0.1006   60.7184 H       1  ZINC000437192871    0.1600
     35 H35       -11.6116   -2.4094   59.8252 H       1  ZINC000437192871    0.0900
     36 H36       -12.9251   -1.2264   59.6158 H       1  ZINC000437192871    0.0800
     37 H37       -11.4517    1.1980   59.4595 H       1  ZINC000437192871    0.1000
     38 H38       -10.1314    1.0844   58.2711 H       1  ZINC000437192871    0.1000
     39 H39       -11.7191    0.7596   56.4533 H       1  ZINC000437192871    0.0600
     40 H40       -13.0761    0.6595   57.6008 H       1  ZINC000437192871    0.0500
     41 H41       -11.4222    3.0096   57.1876 H       1  ZINC000437192871    0.3800
     42 H42        -9.3019   -3.0939   60.8871 H       1  ZINC000437192871    0.1000
     43 H43        -7.9388   -3.8956   60.0700 H       1  ZINC000437192871    0.0900
     44 H44        -8.3701   -2.2213   59.6467 H       1  ZINC000437192871    0.0900
     45 H45       -10.5572   -3.0195   54.7444 H       1  ZINC000437192871    0.1600
     46 H46       -12.1157   -2.6458   52.8787 H       1  ZINC000437192871    0.1500
     47 H47       -15.3563   -4.0327   55.2852 H       1  ZINC000437192871    0.1500
     48 H48       -13.3197   -0.8745   62.2856 H       1  ZINC000437192871    0.1800
@<TRIPOS>BOND
     1     1     2    1
     2     1    29    1
     3     1    30    1
     4     1    31    1
     5     2     3    1
     6     2    32    1
     7     2    33    1
     8     3    28    1
     9     3     4    1
    10     4     5    2
    11     4    34    1
    12     5     6    1
    13     5    27    1
    14     6     7    1
    15     6    35    1
    16     6    36    1
    17     7     8    1
    18     7    11   am
    19     8     9    1
    20     8    37    1
    21     8    38    1
    22     9    10    1
    23     9    39    1
    24     9    40    1
    25    10    41    1
    26    11    12    2
    27    11    13    1
    28    13    18    1
    29    13    14    2
    30    14    15    1
    31    14    16    1
    32    15    42    1
    33    15    43    1
    34    15    44    1
    35    16    17    1
    36    17    18    2
    37    18    19    1
    38    19    25   ar
    39    19    20   ar
    40    20    21   ar
    41    20    45    1
    42    21    22   ar
    43    21    46    1
    44    22    23    1
    45    22    24   ar
    46    24    25   ar
    47    24    47    1
    48    25    26    1
    49    27    28    2
    50    27    48    1
@<TRIPOS>SUBSTRUCTURE
     1 ZINC000437192871        1 TEMP              0 ****  ****    0 ROOT


##########                                Name:    ZINC000375302598
##########                DOCK_Rotatable_Bonds:                   8
##########                         Heavy_Atoms:                  27
##########                    Molecular_Weight:             368.479
##########                DOCK_Rotatable_Bonds:                   8
##########                       Formal_Charge:               -0.02
##########                     HBond_Acceptors:                   6
##########                        HBond_Donors:                   1
##########                         Heavy_Atoms:                  27
##########                          Grid_Score:          -36.847549
##########                     Grid_vdw_energy:          -35.175652
##########                      Grid_es_energy:           -1.671899
##########           Internal_energy_repulsive:            9.064154

@<TRIPOS>MOLECULE
ZINC000375302598
 55 58 1 0 0
SMALL
USER_CHARGES


@<TRIPOS>ATOM
      1 C1        -13.7297   -3.6010   56.5064 C.3     1  ZINC000375302598   -0.1500
      2 C2        -13.0409   -4.9525   56.7067 C.3     1  ZINC000375302598   -0.0300
      3 C3        -11.8186   -4.7705   57.5690 C.2     1  ZINC000375302598    0.1800
      4 N4        -11.5088   -3.7066   58.2702 N.2     1  ZINC000375302598   -0.4700
      5 C5        -10.3421   -3.9973   58.8729 C.2     1  ZINC000375302598    0.1800
      6 C6         -9.5653   -3.0936   59.7953 C.3     1  ZINC000375302598    0.1500
      7 N7        -10.1645   -1.7523   59.7859 N.3     1  ZINC000375302598   -0.5300
      8 C8        -10.3852   -1.2649   61.1534 C.3     1  ZINC000375302598    0.0500
      9 C9        -11.1402    0.0654   61.1065 C.3     1  ZINC000375302598   -0.1100
     10 C10       -10.3216    1.0834   60.3078 C.3     1  ZINC000375302598   -0.1300
     11 C11       -10.0644    0.5305   58.9032 C.3     1  ZINC000375302598    0.1500
     12 H12       -11.0145    0.3907   58.3876 H       1  ZINC000375302598    0.1000
     13 N13        -9.2337    1.4738   58.1508 N.am    1  ZINC000375302598   -0.7300
     14 C14        -9.3108    1.5156   56.8059 C.2     1  ZINC000375302598    0.5200
     15 O15       -10.0669    0.7711   56.2185 O.2     1  ZINC000375302598   -0.5300
     16 C16        -8.4576    2.4872   56.0320 C.3     1  ZINC000375302598   -0.1100
     17 C17        -7.0271    2.4534   56.5736 C.3     1  ZINC000375302598   -0.1200
     18 H18        -6.5529    1.4721   56.5877 H       1  ZINC000375302598    0.1200
     19 C19        -6.6763    3.4240   57.7031 C.3     1  ZINC000375302598   -0.1700
     20 C20        -6.1360    3.6647   56.2913 C.3     1  ZINC000375302598   -0.1100
     21 H21        -6.5689    4.4859   55.7199 H       1  ZINC000375302598    0.1100
     22 C22        -4.6696    3.4104   56.0546 C.ar    1  ZINC000375302598   -0.0500
     23 C23        -3.9867    4.1409   55.1000 C.ar    1  ZINC000375302598   -0.1200
     24 C24        -2.6416    3.9077   54.8829 C.ar    1  ZINC000375302598   -0.1200
     25 C25        -1.9792    2.9445   55.6206 C.ar    1  ZINC000375302598   -0.1300
     26 C26        -2.6619    2.2146   56.5757 C.ar    1  ZINC000375302598   -0.1200
     27 C27        -4.0060    2.4508   56.7958 C.ar    1  ZINC000375302598   -0.1100
     28 C28        -9.3406   -0.8133   59.0140 C.3     1  ZINC000375302598    0.0500
     29 N29       -10.0081   -5.2008   58.5141 N.2     1  ZINC000375302598   -0.3800
     30 O30       -10.8458   -5.6647   57.7697 O.3     1  ZINC000375302598    0.0800
     31 H31       -13.0409   -2.9108   56.0192 H       1  ZINC000375302598    0.0600
     32 H32       -14.6138   -3.7327   55.8828 H       1  ZINC000375302598    0.0800
     33 H33       -14.0249   -3.1966   57.4746 H       1  ZINC000375302598    0.0600
     34 H34       -13.7297   -5.6426   57.1939 H       1  ZINC000375302598    0.1100
     35 H35       -12.7457   -5.3568   55.7384 H       1  ZINC000375302598    0.1000
     36 H36        -9.5931   -3.4969   60.8076 H       1  ZINC000375302598    0.0700
     37 H37        -8.5309   -3.0318   59.4571 H       1  ZINC000375302598    0.1100
     38 H38       -10.9721   -1.9963   61.7093 H       1  ZINC000375302598    0.0800
     39 H39        -9.4243   -1.1200   61.6468 H       1  ZINC000375302598    0.0400
     40 H40       -12.1073   -0.0818   60.6255 H       1  ZINC000375302598    0.0700
     41 H41       -11.2903    0.4346   62.1211 H       1  ZINC000375302598    0.0700
     42 H42       -10.8753    2.0195   60.2350 H       1  ZINC000375302598    0.0700
     43 H43        -9.3703    1.2599   60.8096 H       1  ZINC000375302598    0.0600
     44 H44        -8.6282    2.0685   58.6205 H       1  ZINC000375302598    0.4000
     45 H45        -8.4539    2.2081   54.9783 H       1  ZINC000375302598    0.1000
     46 H46        -8.8633    3.4931   56.1399 H       1  ZINC000375302598    0.1000
     47 H47        -7.4646    4.0866   58.0604 H       1  ZINC000375302598    0.1000
     48 H48        -5.9709    3.0814   58.4602 H       1  ZINC000375302598    0.1000
     49 H49        -4.5043    4.8936   54.5238 H       1  ZINC000375302598    0.1200
     50 H50        -2.1083    4.4780   54.1367 H       1  ZINC000375302598    0.1200
     51 H51        -0.9284    2.7618   55.4505 H       1  ZINC000375302598    0.1200
     52 H52        -2.1445    1.4618   57.1518 H       1  ZINC000375302598    0.1200
     53 H53        -4.5393    1.8805   57.5420 H       1  ZINC000375302598    0.1200
     54 H54        -8.3845   -0.6704   59.5174 H       1  ZINC000375302598    0.0400
     55 H55        -9.1687   -1.2166   58.0160 H       1  ZINC000375302598    0.0900
@<TRIPOS>BOND
     1     1     2    1
     2     1    31    1
     3     1    32    1
     4     1    33    1
     5     2     3    1
     6     2    34    1
     7     2    35    1
     8     3    30    1
     9     3     4    2
    10     4     5    1
    11     5     6    1
    12     5    29    2
    13     6     7    1
    14     6    36    1
    15     6    37    1
    16     7    28    1
    17     7     8    1
    18     8     9    1
    19     8    38    1
    20     8    39    1
    21     9    10    1
    22     9    40    1
    23     9    41    1
    24    10    11    1
    25    10    42    1
    26    10    43    1
    27    11    12    1
    28    11    13    1
    29    11    28    1
    30    13    14   am
    31    13    44    1
    32    14    15    2
    33    14    16    1
    34    16    17    1
    35    16    45    1
    36    16    46    1
    37    17    18    1
    38    17    20    1
    39    17    19    1
    40    19    20    1
    41    19    47    1
    42    19    48    1
    43    20    21    1
    44    20    22    1
    45    22    27   ar
    46    22    23   ar
    47    23    24   ar
    48    23    49    1
    49    24    25   ar
    50    24    50    1
    51    25    26   ar
    52    25    51    1
    53    26    27   ar
    54    26    52    1
    55    27    53    1
    56    28    54    1
    57    28    55    1
    58    29    30    1
@<TRIPOS>SUBSTRUCTURE
     1 ZINC000375302598        1 TEMP              0 ****  ****    0 ROOT


##########                                Name:    ZINC000919225759
##########                DOCK_Rotatable_Bonds:                   4
##########                         Heavy_Atoms:                  27
##########                    Molecular_Weight:             375.295
##########                DOCK_Rotatable_Bonds:                   4
##########                       Formal_Charge:                0.04
##########                     HBond_Acceptors:                  11
##########                        HBond_Donors:                   0
##########                         Heavy_Atoms:                  27
##########                          Grid_Score:          -36.844479
##########                     Grid_vdw_energy:          -36.304199
##########                      Grid_es_energy:           -0.540278
##########           Internal_energy_repulsive:            6.706477

@<TRIPOS>MOLECULE
ZINC000919225759
 40 41 1 0 0
SMALL
USER_CHARGES


@<TRIPOS>ATOM
      1 C1        -11.7138   -0.3201   54.5851 C.3     1  ZINC000919225759   -0.1500
      2 C2        -10.4669   -0.2999   53.7389 C.ar    1  ZINC000919225759    0.0900
      3 C3         -9.5838    0.7785   53.8198 C.ar    1  ZINC000919225759   -0.1200
      4 C4         -9.8680    1.9031   54.7345 C.2     1  ZINC000919225759    0.5200
      5 O5         -9.9837    3.0294   54.2948 O.2     1  ZINC000919225759   -0.4700
      6 O6         -9.9989    1.6793   56.0565 O.3     1  ZINC000919225759   -0.3400
      7 C7         -8.8944    1.0150   56.7252 C.3     1  ZINC000919225759    0.1400
      8 H8         -8.5962    0.1381   56.1503 H       1  ZINC000919225759    0.1100
      9 C9         -7.7113    1.9786   56.8360 C.3     1  ZINC000919225759   -0.1700
     10 C10        -9.3258    0.5883   58.1047 C.ar    1  ZINC000919225759   -0.1000
     11 C11        -9.9311    1.4975   58.9515 C.ar    1  ZINC000919225759   -0.0400
     12 C12       -10.3268    1.1061   60.2171 C.ar    1  ZINC000919225759   -0.1100
     13 C13       -10.1175   -0.1944   60.6352 C.ar    1  ZINC000919225759   -0.0500
     14 C14        -9.5129   -1.1042   59.7877 C.ar    1  ZINC000919225759   -0.0400
     15 N15        -9.2882   -2.4970   60.2358 N.pl3   1  ZINC000919225759    0.0300
     16 O16        -9.6361   -2.8415   61.3510 O.2     1  ZINC000919225759   -0.1500
     17 O17        -8.7555   -3.2984   59.4892 O.2     1  ZINC000919225759   -0.1500
     18 C18        -9.1211   -0.7141   58.5210 C.ar    1  ZINC000919225759   -0.0400
     19 C19        -8.4305    0.7889   53.0325 C.ar    1  ZINC000919225759    0.0500
     20 C20        -8.1712   -0.2646   52.1809 C.ar    1  ZINC000919225759   -0.0600
     21 N21        -6.9490   -0.2555   51.3460 N.pl3   1  ZINC000919225759    0.0300
     22 O22        -6.1737    0.6816   51.4113 O.2     1  ZINC000919225759   -0.1300
     23 O23        -6.7186   -1.1850   50.5934 O.2     1  ZINC000919225759   -0.1300
     24 C24        -9.0507   -1.3303   52.1056 C.ar    1  ZINC000919225759    0.0400
     25 C25       -10.1925   -1.3495   52.8867 C.ar    1  ZINC000919225759   -0.0500
     26 N26       -11.1273   -2.4939   52.7999 N.pl3   1  ZINC000919225759    0.0200
     27 O27       -11.3445   -3.0227   51.7244 O.2     1  ZINC000919225759   -0.1300
     28 O28       -11.6793   -2.9068   53.8040 O.2     1  ZINC000919225759   -0.1200
     29 H29       -11.4716   -0.6941   55.5799 H       1  ZINC000919225759    0.1200
     30 H30       -12.1154    0.6901   54.6645 H       1  ZINC000919225759    0.1200
     31 H31       -12.4559   -0.9710   54.1229 H       1  ZINC000919225759    0.0900
     32 H32        -8.0095    2.8554   57.4108 H       1  ZINC000919225759    0.0700
     33 H33        -6.8821    1.4799   57.3380 H       1  ZINC000919225759    0.0900
     34 H34        -7.3993    2.2873   55.8383 H       1  ZINC000919225759    0.0700
     35 H35       -10.0946    2.5138   58.6247 H       1  ZINC000919225759    0.1500
     36 H36       -10.7992    1.8168   60.8790 H       1  ZINC000919225759    0.1500
     37 H37       -10.4260   -0.5000   61.6241 H       1  ZINC000919225759    0.1600
     38 H38        -8.6488   -1.4247   57.8590 H       1  ZINC000919225759    0.1600
     39 H39        -7.7434    1.6202   53.0899 H       1  ZINC000919225759    0.1900
     40 H40        -8.8430   -2.1525   51.4368 H       1  ZINC000919225759    0.1900
@<TRIPOS>BOND
     1     1     2    1
     2     1    29    1
     3     1    30    1
     4     1    31    1
     5     2    25   ar
     6     2     3   ar
     7     3     4    1
     8     3    19   ar
     9     4     5    2
    10     4     6    1
    11     6     7    1
    12     7     8    1
    13     7     9    1
    14     7    10    1
    15     9    32    1
    16     9    33    1
    17     9    34    1
    18    10    18   ar
    19    10    11   ar
    20    11    12   ar
    21    11    35    1
    22    12    13   ar
    23    12    36    1
    24    13    14   ar
    25    13    37    1
    26    14    15    1
    27    14    18   ar
    28    15    16    2
    29    15    17    2
    30    18    38    1
    31    19    20   ar
    32    19    39    1
    33    20    21    1
    34    20    24   ar
    35    21    22    2
    36    21    23    2
    37    24    25   ar
    38    24    40    1
    39    25    26    1
    40    26    27    2
    41    26    28    2
@<TRIPOS>SUBSTRUCTURE
     1 ZINC000919225759        1 TEMP              0 ****  ****    0 ROOT


##########                                Name:    ZINC001109082135
##########                DOCK_Rotatable_Bonds:                   9
##########                         Heavy_Atoms:                  27
##########                    Molecular_Weight:             373.455
##########                DOCK_Rotatable_Bonds:                   9
##########                       Formal_Charge:          -0.0100003
##########                     HBond_Acceptors:                   8
##########                        HBond_Donors:                   3
##########                         Heavy_Atoms:                  27
##########                          Grid_Score:          -36.842033
##########                     Grid_vdw_energy:          -35.805225
##########                      Grid_es_energy:           -1.036810
##########           Internal_energy_repulsive:           18.183241

@<TRIPOS>MOLECULE
ZINC001109082135
 54 57 1 0 0
SMALL
USER_CHARGES


@<TRIPOS>ATOM
      1 C1        -16.8819   -3.8907   45.9855 C.3     1  ZINC001109082135   -0.1400
      2 C2        -15.5736   -3.9909   46.7722 C.3     1  ZINC001109082135   -0.1400
      3 C3        -15.5060   -2.8716   47.7791 C.2     1  ZINC001109082135    0.5100
      4 O4        -16.5265   -2.4244   48.2580 O.2     1  ZINC001109082135   -0.5400
      5 N5        -14.3115   -2.3677   48.1474 N.am    1  ZINC001109082135   -0.7200
      6 C6        -14.2458   -1.2785   49.1249 C.3     1  ZINC001109082135    0.1000
      7 C7        -14.1568   -1.8552   50.5143 C.2     1  ZINC001109082135    0.5100
      8 O8        -15.1684   -2.1568   51.1117 O.2     1  ZINC001109082135   -0.5300
      9 N9        -12.9532   -2.0358   51.0932 N.am    1  ZINC001109082135   -0.7100
     10 C10       -12.8667   -2.5980   52.4433 C.3     1  ZINC001109082135    0.1100
     11 H11       -13.7716   -3.1558   52.6841 H       1  ZINC001109082135    0.0900
     12 C12       -11.6170   -3.5022   52.5781 C.3     1  ZINC001109082135   -0.1600
     13 C13       -10.7787   -2.8018   53.6898 C.3     1  ZINC001109082135    0.0600
     14 H14       -10.0488   -3.4329   54.1968 H       1  ZINC001109082135    0.1300
     15 C15       -10.2061   -1.5184   53.0161 C.3     1  ZINC001109082135   -0.1200
     16 C16       -11.4464   -0.6035   52.8676 C.3     1  ZINC001109082135   -0.1100
     17 C17       -12.6208   -1.4717   53.4919 C.3     1  ZINC001109082135    0.0400
     18 H18       -13.4972   -0.9120   53.8191 H       1  ZINC001109082135    0.1200
     19 N19       -11.8703   -2.2315   54.5574 N.3     1  ZINC001109082135   -0.4800
     20 C20       -12.7075   -3.2900   55.1376 C.3     1  ZINC001109082135    0.0800
     21 C21       -12.8046   -3.0930   56.6286 C.2     1  ZINC001109082135    0.2000
     22 C22       -13.9446   -3.4378   57.2892 C.2     1  ZINC001109082135   -0.2900
     23 C23       -14.0020   -3.2408   58.6844 C.2     1  ZINC001109082135    0.5200
     24 O24       -15.0037   -3.5364   59.3146 O.2     1  ZINC001109082135   -0.5400
     25 N25       -12.9243   -2.7185   59.3079 N.am    1  ZINC001109082135   -0.6300
     26 C26       -11.8258   -2.3981   58.5963 C.2     1  ZINC001109082135    0.4300
     27 C27       -10.6314   -1.8160   59.3075 C.3     1  ZINC001109082135   -0.1400
     28 C28        -9.3202   -2.6021   59.2454 C.3     1  ZINC001109082135   -0.1400
     29 C29        -9.4746   -1.3073   58.4450 C.3     1  ZINC001109082135   -0.1400
     30 N30       -11.7710   -2.5853   57.3046 N.2     1  ZINC001109082135   -0.5300
     31 H31       -16.9218   -2.9328   45.4671 H       1  ZINC001109082135    0.0600
     32 H32       -16.9309   -4.7003   45.2572 H       1  ZINC001109082135    0.0600
     33 H33       -17.7253   -3.9679   46.6716 H       1  ZINC001109082135    0.0600
     34 H34       -15.5338   -4.9489   47.2906 H       1  ZINC001109082135    0.1000
     35 H35       -14.7302   -3.9137   46.0860 H       1  ZINC001109082135    0.1000
     36 H36       -13.4952   -2.7263   47.7652 H       1  ZINC001109082135    0.4100
     37 H37       -13.3653   -0.6666   48.9284 H       1  ZINC001109082135    0.1000
     38 H38       -15.1416   -0.6629   49.0437 H       1  ZINC001109082135    0.1000
     39 H39       -12.1443   -1.7934   50.6160 H       1  ZINC001109082135    0.4000
     40 H40       -11.9022   -4.5074   52.8885 H       1  ZINC001109082135    0.0800
     41 H41       -11.0619   -3.5320   51.6404 H       1  ZINC001109082135    0.0800
     42 H42        -9.4584   -1.0501   53.6563 H       1  ZINC001109082135    0.0700
     43 H43        -9.7835   -1.7536   52.0393 H       1  ZINC001109082135    0.0700
     44 H44       -11.3134    0.3183   53.4339 H       1  ZINC001109082135    0.0700
     45 H45       -11.6386   -0.3853   51.8170 H       1  ZINC001109082135    0.0700
     46 H46       -13.7046   -3.2457   54.6997 H       1  ZINC001109082135    0.1000
     47 H47       -12.2613   -4.2621   54.9279 H       1  ZINC001109082135    0.0700
     48 H48       -14.7870   -3.8529   56.7558 H       1  ZINC001109082135    0.1600
     49 H49       -12.9409   -2.5737   60.2670 H       1  ZINC001109082135    0.4200
     50 H50       -10.8503   -1.2733   60.2270 H       1  ZINC001109082135    0.1300
     51 H51        -8.6761   -2.5766   60.1245 H       1  ZINC001109082135    0.1100
     52 H52        -9.3215   -3.5401   58.6904 H       1  ZINC001109082135    0.1100
     53 H53        -9.5774   -1.3935   57.3633 H       1  ZINC001109082135    0.1100
     54 H54        -8.9321   -0.4301   58.7974 H       1  ZINC001109082135    0.1100
@<TRIPOS>BOND
     1     1     2    1
     2     1    31    1
     3     1    32    1
     4     1    33    1
     5     2     3    1
     6     2    34    1
     7     2    35    1
     8     3     4    2
     9     3     5   am
    10     5     6    1
    11     5    36    1
    12     6     7    1
    13     6    37    1
    14     6    38    1
    15     7     8    2
    16     7     9   am
    17     9    10    1
    18     9    39    1
    19    10    11    1
    20    10    17    1
    21    10    12    1
    22    12    13    1
    23    12    40    1
    24    12    41    1
    25    13    14    1
    26    13    19    1
    27    13    15    1
    28    15    16    1
    29    15    42    1
    30    15    43    1
    31    16    17    1
    32    16    44    1
    33    16    45    1
    34    17    18    1
    35    17    19    1
    36    19    20    1
    37    20    21    1
    38    20    46    1
    39    20    47    1
    40    21    30    1
    41    21    22    2
    42    22    23    1
    43    22    48    1
    44    23    24    2
    45    23    25   am
    46    25    26    1
    47    25    49    1
    48    26    27    1
    49    26    30    2
    50    27    29    1
    51    27    28    1
    52    27    50    1
    53    28    29    1
    54    28    51    1
    55    28    52    1
    56    29    53    1
    57    29    54    1
@<TRIPOS>SUBSTRUCTURE
     1 ZINC001109082135        1 TEMP              0 ****  ****    0 ROOT


##########                                Name:    ZINC000655982608
##########                DOCK_Rotatable_Bonds:                   5
##########                         Heavy_Atoms:                  29
##########                    Molecular_Weight:             388.469
##########                DOCK_Rotatable_Bonds:                   5
##########                       Formal_Charge:          -0.0200006
##########                     HBond_Acceptors:                   6
##########                        HBond_Donors:                   0
##########                         Heavy_Atoms:                  29
##########                          Grid_Score:          -36.828793
##########                     Grid_vdw_energy:          -36.983997
##########                      Grid_es_energy:            0.155204
##########           Internal_energy_repulsive:           30.963776

@<TRIPOS>MOLECULE
ZINC000655982608
 53 57 1 0 0
SMALL
USER_CHARGES


@<TRIPOS>ATOM
      1 C1        -11.7063   -4.3419   57.7942 C.3     1  ZINC000655982608   -0.1900
      2 C2        -12.6157   -3.3805   57.0264 C.3     1  ZINC000655982608    0.0800
      3 H3        -12.0252   -2.5465   56.6471 H       1  ZINC000655982608    0.1000
      4 C4        -13.2659   -4.1196   55.8550 C.3     1  ZINC000655982608   -0.0300
      5 C5        -12.6041   -3.7009   54.5674 C.2     1  ZINC000655982608    0.2000
      6 N6        -12.3388   -2.4738   54.1888 N.2     1  ZINC000655982608   -0.4800
      7 C7        -11.7518   -2.5857   52.9839 C.2     1  ZINC000655982608    0.1700
      8 C8        -11.2552   -1.4514   52.1250 C.3     1  ZINC000655982608   -0.0100
      9 H9        -11.5908   -1.5689   51.0947 H       1  ZINC000655982608    0.1300
     10 C10       -11.6999   -0.0865   52.6996 C.3     1  ZINC000655982608   -0.1400
     11 C11       -10.5234    0.8277   52.4372 C.2     1  ZINC000655982608    0.5200
     12 O12       -10.5624    2.0392   52.4780 O.2     1  ZINC000655982608   -0.5000
     13 N13        -9.4283    0.1017   52.1530 N.am    1  ZINC000655982608   -0.5600
     14 C14        -8.1751    0.6474   51.8541 C.ar    1  ZINC000655982608    0.1600
     15 C15        -7.8351    1.9088   52.3254 C.ar    1  ZINC000655982608   -0.1600
     16 C16        -6.5973    2.4448   52.0286 C.ar    1  ZINC000655982608   -0.0900
     17 C17        -5.6971    1.7271   51.2627 C.ar    1  ZINC000655982608   -0.1400
     18 C18        -6.0327    0.4712   50.7914 C.ar    1  ZINC000655982608   -0.0900
     19 C19        -7.2664   -0.0732   51.0903 C.ar    1  ZINC000655982608   -0.1600
     20 C20        -9.7162   -1.3374   52.1955 C.3     1  ZINC000655982608    0.1100
     21 N21       -11.6912   -3.8515   52.6966 N.2     1  ZINC000655982608   -0.3700
     22 O22       -12.1703   -4.5097   53.5959 O.3     1  ZINC000655982608    0.0900
     23 N23       -13.6606   -2.8719   57.9250 N.3     1  ZINC000655982608   -0.4700
     24 C24       -14.5628   -3.9608   58.3587 C.3     1  ZINC000655982608    0.0300
     25 C25       -14.9945   -3.5003   59.7700 C.3     1  ZINC000655982608   -0.0800
     26 C26       -13.8425   -2.6152   60.2024 C.ar    1  ZINC000655982608   -0.1400
     27 C27       -13.4726   -2.1352   61.4408 C.ar    1  ZINC000655982608   -0.0800
     28 C28       -12.3522   -1.3333   61.5673 C.ar    1  ZINC000655982608   -0.1400
     29 C29       -11.6036   -1.0144   60.4495 C.ar    1  ZINC000655982608   -0.0900
     30 C30       -11.9707   -1.4904   59.2078 C.ar    1  ZINC000655982608   -0.1400
     31 C31       -13.0997   -2.2960   59.0716 C.ar    1  ZINC000655982608    0.1000
     32 H32       -10.8680   -4.6326   57.1612 H       1  ZINC000655982608    0.0700
     33 H33       -11.3307   -3.8487   58.6907 H       1  ZINC000655982608    0.0700
     34 H34       -12.2723   -5.2292   58.0778 H       1  ZINC000655982608    0.0700
     35 H35       -13.1465   -5.1943   55.9922 H       1  ZINC000655982608    0.1200
     36 H36       -14.3271   -3.8741   55.8146 H       1  ZINC000655982608    0.1100
     37 H37       -12.5873    0.2752   52.1800 H       1  ZINC000655982608    0.1200
     38 H38       -11.8895   -0.1666   53.7700 H       1  ZINC000655982608    0.1200
     39 H39        -8.5380    2.4701   52.9230 H       1  ZINC000655982608    0.1200
     40 H40        -6.3323    3.4256   52.3949 H       1  ZINC000655982608    0.1300
     41 H41        -4.7299    2.1486   51.0318 H       1  ZINC000655982608    0.1200
     42 H42        -5.3277   -0.0866   50.1930 H       1  ZINC000655982608    0.1300
     43 H43        -7.5280   -1.0542   50.7220 H       1  ZINC000655982608    0.1500
     44 H44        -9.3488   -1.7681   53.1269 H       1  ZINC000655982608    0.0900
     45 H45        -9.2602   -1.8385   51.3417 H       1  ZINC000655982608    0.1000
     46 H46       -15.4249   -4.0357   57.6959 H       1  ZINC000655982608    0.1000
     47 H47       -14.0282   -4.9093   58.4082 H       1  ZINC000655982608    0.0700
     48 H48       -15.9225   -2.9305   59.7231 H       1  ZINC000655982608    0.0900
     49 H49       -15.0978   -4.3540   60.4398 H       1  ZINC000655982608    0.0800
     50 H50       -14.0583   -2.3850   62.3131 H       1  ZINC000655982608    0.1200
     51 H51       -12.0632   -0.9569   62.5375 H       1  ZINC000655982608    0.1200
     52 H52       -10.7281   -0.3899   60.5488 H       1  ZINC000655982608    0.1300
     53 H53       -11.3819   -1.2373   58.3385 H       1  ZINC000655982608    0.1200
@<TRIPOS>BOND
     1     1     2    1
     2     1    32    1
     3     1    33    1
     4     1    34    1
     5     2     3    1
     6     2     4    1
     7     2    23    1
     8     4     5    1
     9     4    35    1
    10     4    36    1
    11     5    22    1
    12     5     6    2
    13     6     7    1
    14     7     8    1
    15     7    21    2
    16     8     9    1
    17     8    20    1
    18     8    10    1
    19    10    11    1
    20    10    37    1
    21    10    38    1
    22    11    12    2
    23    11    13   am
    24    13    14    1
    25    13    20    1
    26    14    19   ar
    27    14    15   ar
    28    15    16   ar
    29    15    39    1
    30    16    17   ar
    31    16    40    1
    32    17    18   ar
    33    17    41    1
    34    18    19   ar
    35    18    42    1
    36    19    43    1
    37    20    44    1
    38    20    45    1
    39    21    22    1
    40    23    31    1
    41    23    24    1
    42    24    25    1
    43    24    46    1
    44    24    47    1
    45    25    26    1
    46    25    48    1
    47    25    49    1
    48    26    31   ar
    49    26    27   ar
    50    27    28   ar
    51    27    50    1
    52    28    29   ar
    53    28    51    1
    54    29    30   ar
    55    29    52    1
    56    30    31   ar
    57    30    53    1
@<TRIPOS>SUBSTRUCTURE
     1 ZINC000655982608        1 TEMP              0 ****  ****    0 ROOT


##########                                Name:    ZINC000981700465
##########                DOCK_Rotatable_Bonds:                   9
##########                         Heavy_Atoms:                  26
##########                    Molecular_Weight:             356.428
##########                DOCK_Rotatable_Bonds:                   9
##########                       Formal_Charge:               -0.01
##########                     HBond_Acceptors:                   8
##########                        HBond_Donors:                   3
##########                         Heavy_Atoms:                  26
##########                          Grid_Score:          -36.826599
##########                     Grid_vdw_energy:          -33.045650
##########                      Grid_es_energy:           -3.780950
##########           Internal_energy_repulsive:           15.658691

@<TRIPOS>MOLECULE
ZINC000981700465
 50 52 1 0 0
SMALL
USER_CHARGES


@<TRIPOS>ATOM
      1 C1        -16.0900   -3.3342   46.7990 C.3     1  ZINC000981700465   -0.1500
      2 C2        -17.2869   -2.4897   47.2409 C.3     1  ZINC000981700465   -0.1100
      3 C3        -16.9445   -1.7612   48.5419 C.3     1  ZINC000981700465   -0.0500
      4 C4        -15.7528   -0.8664   48.3180 C.2     1  ZINC000981700465    0.1400
      5 N5        -15.4303   -0.2859   47.1952 N.2     1  ZINC000981700465   -0.2900
      6 N6        -14.2621    0.4596   47.3896 N.pl3   1  ZINC000981700465   -0.4600
      7 C7        -13.8755    0.3198   48.6677 C.2     1  ZINC000981700465    0.1000
      8 C8        -14.7925   -0.5040   49.2890 C.2     1  ZINC000981700465   -0.2900
      9 C9        -14.7686   -0.9337   50.6991 C.2     1  ZINC000981700465    0.5900
     10 O10       -15.6637   -1.6301   51.1378 O.2     1  ZINC000981700465   -0.5300
     11 N11       -13.7546   -0.5545   51.5020 N.am    1  ZINC000981700465   -0.7300
     12 C12       -13.7318   -0.9800   52.9036 C.3     1  ZINC000981700465    0.1300
     13 C13       -13.2211   -2.4196   52.9913 C.3     1  ZINC000981700465   -0.1100
     14 H14       -13.8349   -3.0791   52.3779 H       1  ZINC000981700465    0.0900
     15 C15       -11.7376   -2.4962   52.5525 C.3     1  ZINC000981700465   -0.1200
     16 C16       -11.2399   -3.7846   53.2535 C.3     1  ZINC000981700465   -0.1300
     17 C17       -11.9475   -3.7671   54.6241 C.3     1  ZINC000981700465    0.1400
     18 H18       -12.2276   -4.7801   54.9128 H       1  ZINC000981700465    0.1000
     19 N19       -11.0649   -3.1829   55.6370 N.am    1  ZINC000981700465   -0.7100
     20 C20       -11.1549   -3.5832   56.9209 C.2     1  ZINC000981700465    0.5600
     21 O21       -11.9691   -4.4275   57.2385 O.2     1  ZINC000981700465   -0.5200
     22 C22       -10.2612   -2.9939   57.9448 C.ar    1  ZINC000981700465   -0.1400
     23 C23        -9.6609   -3.7910   58.9279 C.ar    1  ZINC000981700465   -0.0600
     24 C24        -8.8371   -3.1680   59.8513 C.ar    1  ZINC000981700465    0.0400
     25 N25        -8.6404   -1.8656   59.7856 N.ar    1  ZINC000981700465   -0.2200
     26 N26        -9.1870   -1.1300   58.8880 N.ar    1  ZINC000981700465   -0.2400
     27 C27        -9.9832   -1.6242   57.9599 C.ar    1  ZINC000981700465    0.0700
     28 C28       -13.2105   -2.9004   54.4572 C.3     1  ZINC000981700465   -0.1200
     29 H29       -15.8549   -4.0645   47.5733 H       1  ZINC000981700465    0.0600
     30 H30       -16.3340   -3.8532   45.8721 H       1  ZINC000981700465    0.0600
     31 H31       -15.2284   -2.6866   46.6368 H       1  ZINC000981700465    0.0500
     32 H32       -17.5219   -1.7594   46.4666 H       1  ZINC000981700465    0.0600
     33 H33       -18.1485   -3.1374   47.4030 H       1  ZINC000981700465    0.0600
     34 H34       -17.7970   -1.1591   48.8565 H       1  ZINC000981700465    0.1000
     35 H35       -16.7099   -2.4915   49.3164 H       1  ZINC000981700465    0.0800
     36 H36       -13.8082    0.9882   46.7148 H       1  ZINC000981700465    0.4500
     37 H37       -13.0089    0.7723   49.1265 H       1  ZINC000981700465    0.1800
     38 H38       -13.0400    0.0000   51.1517 H       1  ZINC000981700465    0.4000
     39 H39       -13.0712   -0.3248   53.4715 H       1  ZINC000981700465    0.0700
     40 H40       -14.7392   -0.9261   53.3162 H       1  ZINC000981700465    0.0700
     41 H41       -11.6596   -2.5908   51.4695 H       1  ZINC000981700465    0.0700
     42 H42       -11.1848   -1.6259   52.9061 H       1  ZINC000981700465    0.0700
     43 H43       -11.5334   -4.6663   52.6839 H       1  ZINC000981700465    0.0800
     44 H44       -10.1579   -3.7552   53.3822 H       1  ZINC000981700465    0.0700
     45 H45       -10.4157   -2.5082   55.3838 H       1  ZINC000981700465    0.4000
     46 H46        -9.8349   -4.8563   58.9650 H       1  ZINC000981700465    0.1700
     47 H47        -8.3563   -3.7487   60.6247 H       1  ZINC000981700465    0.1800
     48 H48       -10.4247   -0.9727   57.2203 H       1  ZINC000981700465    0.1700
     49 H49       -13.1667   -2.0433   55.1291 H       1  ZINC000981700465    0.0800
     50 H50       -14.1007   -3.4937   54.6656 H       1  ZINC000981700465    0.0800
@<TRIPOS>BOND
     1     1     2    1
     2     1    29    1
     3     1    30    1
     4     1    31    1
     5     2     3    1
     6     2    32    1
     7     2    33    1
     8     3     4    1
     9     3    34    1
    10     3    35    1
    11     4     8    1
    12     4     5    2
    13     5     6    1
    14     6     7    1
    15     6    36    1
    16     7     8    2
    17     7    37    1
    18     8     9    1
    19     9    10    2
    20     9    11   am
    21    11    12    1
    22    11    38    1
    23    12    13    1
    24    12    39    1
    25    12    40    1
    26    13    14    1
    27    13    28    1
    28    13    15    1
    29    15    16    1
    30    15    41    1
    31    15    42    1
    32    16    17    1
    33    16    43    1
    34    16    44    1
    35    17    18    1
    36    17    19    1
    37    17    28    1
    38    19    20   am
    39    19    45    1
    40    20    21    2
    41    20    22    1
    42    22    27   ar
    43    22    23   ar
    44    23    24   ar
    45    23    46    1
    46    24    25   ar
    47    24    47    1
    48    25    26   ar
    49    26    27   ar
    50    27    48    1
    51    28    49    1
    52    28    50    1
@<TRIPOS>SUBSTRUCTURE
     1 ZINC000981700465        1 TEMP              0 ****  ****    0 ROOT


##########                                Name:    ZINC000263872566
##########                DOCK_Rotatable_Bonds:                   9
##########                         Heavy_Atoms:                  26
##########                    Molecular_Weight:             362.469
##########                DOCK_Rotatable_Bonds:                   9
##########                       Formal_Charge:           0.0300001
##########                     HBond_Acceptors:                   6
##########                        HBond_Donors:                   2
##########                         Heavy_Atoms:                  26
##########                          Grid_Score:          -36.822521
##########                     Grid_vdw_energy:          -35.346935
##########                      Grid_es_energy:           -1.475585
##########           Internal_energy_repulsive:           22.994501

@<TRIPOS>MOLECULE
ZINC000263872566
 56 57 1 0 0
SMALL
USER_CHARGES


@<TRIPOS>ATOM
      1 C1         -7.7214    2.9018   53.7683 C.3     1  ZINC000263872566   -0.1800
      2 C2         -7.5620    2.2700   52.3840 C.3     1  ZINC000263872566    0.1400
      3 H3         -7.9205    2.9645   51.6241 H       1  ZINC000263872566    0.0700
      4 O4         -6.1830    1.9780   52.1496 O.3     1  ZINC000263872566   -0.5600
      5 C5         -8.3636    0.9957   52.3180 C.ar    1  ZINC000263872566   -0.0800
      6 C6         -9.7346    1.0318   52.4912 C.ar    1  ZINC000263872566   -0.0900
      7 C7        -10.4701   -0.1371   52.4307 C.ar    1  ZINC000263872566   -0.1000
      8 C8         -9.8346   -1.3421   52.1964 C.ar    1  ZINC000263872566   -0.1100
      9 C9        -10.6362   -2.6165   52.1308 C.3     1  ZINC000263872566    0.1800
     10 N10       -11.7053   -2.5730   53.1315 N.am    1  ZINC000263872566   -0.7400
     11 C11       -12.2598   -3.7184   53.5753 C.2     1  ZINC000263872566    0.7100
     12 O12       -11.8728   -4.7878   53.1452 O.2     1  ZINC000263872566   -0.5900
     13 N13       -13.2434   -3.6785   54.4960 N.am    1  ZINC000263872566   -0.6300
     14 C14       -13.8535   -4.9188   54.9940 C.3     1  ZINC000263872566    0.1100
     15 C15       -13.7805   -4.9245   56.5241 C.3     1  ZINC000263872566   -0.1200
     16 C16       -14.4235   -3.6460   57.0663 C.3     1  ZINC000263872566   -0.0800
     17 C17       -14.3839   -3.6639   58.5726 C.2     1  ZINC000263872566    0.4700
     18 O18       -15.1665   -4.3474   59.1895 O.2     1  ZINC000263872566   -0.5000
     19 O19       -13.4794   -2.9207   59.2292 O.3     1  ZINC000263872566   -0.3500
     20 C20       -13.9894   -1.9532   60.1843 C.3     1  ZINC000263872566    0.1200
     21 C21       -12.9867   -0.8074   60.3345 C.3     1  ZINC000263872566   -0.1800
     22 C22       -15.3256   -1.3996   59.6853 C.3     1  ZINC000263872566   -0.1400
     23 C23       -14.1934   -2.6333   61.5396 C.3     1  ZINC000263872566   -0.1800
     24 C24       -13.6541   -2.4277   56.5505 C.3     1  ZINC000263872566   -0.1300
     25 C25       -13.7216   -2.3939   55.0252 C.3     1  ZINC000263872566    0.1300
     26 C26        -8.4638   -1.3781   52.0217 C.ar    1  ZINC000263872566   -0.1000
     27 C27        -7.7288   -0.2087   52.0785 C.ar    1  ZINC000263872566   -0.1100
     28 H28        -7.3629    2.2073   54.5280 H       1  ZINC000263872566    0.0700
     29 H29        -7.1416    3.8236   53.8159 H       1  ZINC000263872566    0.0600
     30 H30        -8.7733    3.1245   53.9470 H       1  ZINC000263872566    0.0700
     31 H31        -5.7958    1.3665   52.7910 H       1  ZINC000263872566    0.3800
     32 H32       -10.2312    1.9733   52.6743 H       1  ZINC000263872566    0.1300
     33 H33       -11.5411   -0.1089   52.5668 H       1  ZINC000263872566    0.1300
     34 H34       -11.0725   -2.7206   51.1373 H       1  ZINC000263872566    0.0800
     35 H35        -9.9844   -3.4666   52.3323 H       1  ZINC000263872566    0.0800
     36 H36       -12.0141   -1.7199   53.4747 H       1  ZINC000263872566    0.4000
     37 H37       -14.8956   -4.9659   54.6776 H       1  ZINC000263872566    0.0800
     38 H38       -13.3103   -5.7774   54.5989 H       1  ZINC000263872566    0.0800
     39 H39       -14.3145   -5.7925   56.9106 H       1  ZINC000263872566    0.0900
     40 H40       -12.7377   -4.9688   56.8384 H       1  ZINC000263872566    0.0800
     41 H41       -15.4591   -3.5900   56.7309 H       1  ZINC000263872566    0.1100
     42 H42       -12.8414   -0.3229   59.3689 H       1  ZINC000263872566    0.0600
     43 H43       -13.3696   -0.0811   61.0515 H       1  ZINC000263872566    0.0700
     44 H44       -12.0348   -1.2018   60.6900 H       1  ZINC000263872566    0.0800
     45 H45       -16.0399   -2.2158   59.5783 H       1  ZINC000263872566    0.0700
     46 H46       -15.7084   -0.6733   60.4023 H       1  ZINC000263872566    0.0800
     47 H47       -15.1803   -0.9150   58.7197 H       1  ZINC000263872566    0.0700
     48 H48       -13.2415   -3.0277   61.8951 H       1  ZINC000263872566    0.0800
     49 H49       -14.5763   -1.9071   62.2566 H       1  ZINC000263872566    0.0700
     50 H50       -14.9077   -3.4496   61.4327 H       1  ZINC000263872566    0.0600
     51 H51       -14.0984   -1.5186   56.9558 H       1  ZINC000263872566    0.0900
     52 H52       -12.6126   -2.4955   56.8646 H       1  ZINC000263872566    0.0700
     53 H53       -13.0938   -1.5860   54.6494 H       1  ZINC000263872566    0.1000
     54 H54       -14.7526   -2.2360   54.7084 H       1  ZINC000263872566    0.0700
     55 H55        -7.9673   -2.3195   51.8383 H       1  ZINC000263872566    0.1300
     56 H56        -6.6579   -0.2368   51.9420 H       1  ZINC000263872566    0.1300
@<TRIPOS>BOND
     1     1     2    1
     2     1    28    1
     3     1    29    1
     4     1    30    1
     5     2     3    1
     6     2     4    1
     7     2     5    1
     8     4    31    1
     9     5    27   ar
    10     5     6   ar
    11     6     7   ar
    12     6    32    1
    13     7     8   ar
    14     7    33    1
    15     8     9    1
    16     8    26   ar
    17     9    10    1
    18     9    34    1
    19     9    35    1
    20    10    11   am
    21    10    36    1
    22    11    12    2
    23    11    13   am
    24    13    25    1
    25    13    14    1
    26    14    15    1
    27    14    37    1
    28    14    38    1
    29    15    16    1
    30    15    39    1
    31    15    40    1
    32    16    17    1
    33    16    24    1
    34    16    41    1
    35    17    18    2
    36    17    19    1
    37    19    20    1
    38    20    21    1
    39    20    22    1
    40    20    23    1
    41    21    42    1
    42    21    43    1
    43    21    44    1
    44    22    45    1
    45    22    46    1
    46    22    47    1
    47    23    48    1
    48    23    49    1
    49    23    50    1
    50    24    25    1
    51    24    51    1
    52    24    52    1
    53    25    53    1
    54    25    54    1
    55    26    27   ar
    56    26    55    1
    57    27    56    1
@<TRIPOS>SUBSTRUCTURE
     1 ZINC000263872566        1 TEMP              0 ****  ****    0 ROOT


##########                                Name:    ZINC000980108339
##########                DOCK_Rotatable_Bonds:                   9
##########                         Heavy_Atoms:                  25
##########                    Molecular_Weight:             348.445
##########                DOCK_Rotatable_Bonds:                   9
##########                       Formal_Charge:          -0.0100001
##########                     HBond_Acceptors:                   7
##########                        HBond_Donors:                   3
##########                         Heavy_Atoms:                  25
##########                          Grid_Score:          -36.796009
##########                     Grid_vdw_energy:          -32.938034
##########                      Grid_es_energy:           -3.857976
##########           Internal_energy_repulsive:            7.034478

@<TRIPOS>MOLECULE
ZINC000980108339
 53 56 1 0 0
SMALL
USER_CHARGES


@<TRIPOS>ATOM
      1 C1        -11.0251   -3.8843   57.1753 C.3     1  ZINC000980108339    0.1200
      2 N2        -10.2462   -3.1571   58.1807 N.am    1  ZINC000980108339   -0.6400
      3 C3        -10.3614   -1.7204   58.4722 C.3     1  ZINC000980108339    0.1100
      4 C4         -9.3309   -1.4877   59.5942 C.3     1  ZINC000980108339    0.1000
      5 H5         -8.5661   -0.7815   59.2710 H       1  ZINC000980108339    0.1200
      6 C6        -10.0124   -0.9919   60.8436 C.2     1  ZINC000980108339    0.5000
      7 O7        -10.4772   -1.7839   61.6358 O.2     1  ZINC000980108339   -0.5200
      8 N8        -10.1051    0.3316   61.0807 N.am    1  ZINC000980108339   -0.7200
      9 C9        -10.7690    0.8136   62.2944 C.3     1  ZINC000980108339    0.1300
     10 C10        -9.7159    1.2874   63.2980 C.3     1  ZINC000980108339   -0.1200
     11 H11        -9.0309    2.0234   62.8770 H       1  ZINC000980108339    0.1000
     12 C12       -10.3028    1.6996   64.6584 C.3     1  ZINC000980108339   -0.1400
     13 C13        -9.0871    1.0122   65.3024 C.3     1  ZINC000980108339    0.1200
     14 H14        -9.3299    0.4524   66.2056 H       1  ZINC000980108339    0.1100
     15 N15        -7.9347    1.8999   65.4758 N.am    1  ZINC000980108339   -0.7200
     16 C16        -7.0709    1.6926   66.4893 C.2     1  ZINC000980108339    0.5200
     17 O17        -7.2467    0.7702   67.2570 O.2     1  ZINC000980108339   -0.5300
     18 C18        -5.8863    2.6068   66.6688 C.3     1  ZINC000980108339   -0.1100
     19 C19        -4.6314    1.9307   66.1132 C.3     1  ZINC000980108339   -0.1300
     20 H20        -4.6996    0.8512   65.9781 H       1  ZINC000980108339    0.1200
     21 C21        -3.2760    2.5063   66.5287 C.3     1  ZINC000980108339   -0.1700
     22 C22        -3.7932    2.7174   65.1035 C.3     1  ZINC000980108339   -0.1200
     23 H23        -4.1356    3.7169   64.8353 H       1  ZINC000980108339    0.1000
     24 C24        -3.1142    1.9293   63.9817 C.3     1  ZINC000980108339   -0.1300
     25 C25        -2.5643    2.7221   62.7941 C.3     1  ZINC000980108339   -0.1800
     26 C26        -1.6036    2.1023   63.8109 C.3     1  ZINC000980108339   -0.1800
     27 C27        -9.0083    0.1392   64.0368 C.3     1  ZINC000980108339   -0.1400
     28 N28        -8.7447   -2.8180   59.8157 N.am    1  ZINC000980108339   -0.7200
     29 C29        -9.3202   -3.6965   58.9843 C.2     1  ZINC000980108339    0.7000
     30 O30        -9.0224   -4.8749   58.9553 O.2     1  ZINC000980108339   -0.5800
     31 H31       -10.7348   -4.9349   57.1807 H       1  ZINC000980108339    0.0900
     32 H32       -12.0869   -3.7996   57.4071 H       1  ZINC000980108339    0.0600
     33 H33       -10.8334   -3.4594   56.1900 H       1  ZINC000980108339    0.0600
     34 H34       -10.1081   -1.1298   57.5917 H       1  ZINC000980108339    0.1000
     35 H35       -11.3661   -1.4798   58.8195 H       1  ZINC000980108339    0.0900
     36 H36        -9.7321    0.9651   60.4478 H       1  ZINC000980108339    0.4000
     37 H37       -11.4296    1.6431   62.0421 H       1  ZINC000980108339    0.0700
     38 H38       -11.3528    0.0053   62.7347 H       1  ZINC000980108339    0.0700
     39 H39       -10.3279    2.7780   64.8144 H       1  ZINC000980108339    0.0800
     40 H40       -11.2515    1.2151   64.8894 H       1  ZINC000980108339    0.1000
     41 H41        -7.7933    2.6369   64.8612 H       1  ZINC000980108339    0.4000
     42 H42        -6.0633    3.5400   66.1340 H       1  ZINC000980108339    0.1000
     43 H43        -5.7467    2.8167   67.7292 H       1  ZINC000980108339    0.1000
     44 H44        -3.2784    3.3667   67.1979 H       1  ZINC000980108339    0.0900
     45 H45        -2.4525    1.8056   66.6666 H       1  ZINC000980108339    0.1000
     46 H46        -3.5341    0.9442   63.7784 H       1  ZINC000980108339    0.1000
     47 H47        -2.6226    2.2585   61.8092 H       1  ZINC000980108339    0.0900
     48 H48        -2.6863    3.8050   62.8122 H       1  ZINC000980108339    0.0900
     49 H49        -1.0935    2.7775   64.4979 H       1  ZINC000980108339    0.0900
     50 H50        -1.0298    1.2311   63.4950 H       1  ZINC000980108339    0.0900
     51 H51        -9.6030   -0.7722   64.0973 H       1  ZINC000980108339    0.1000
     52 H52        -7.9896   -0.0408   63.6933 H       1  ZINC000980108339    0.0800
     53 H53        -8.0540   -3.0269   60.4639 H       1  ZINC000980108339    0.4400
@<TRIPOS>BOND
     1     1     2    1
     2     1    31    1
     3     1    32    1
     4     1    33    1
     5     2    29   am
     6     2     3    1
     7     3     4    1
     8     3    34    1
     9     3    35    1
    10     4     5    1
    11     4     6    1
    12     4    28    1
    13     6     7    2
    14     6     8   am
    15     8     9    1
    16     8    36    1
    17     9    10    1
    18     9    37    1
    19     9    38    1
    20    10    11    1
    21    10    27    1
    22    10    12    1
    23    12    13    1
    24    12    39    1
    25    12    40    1
    26    13    14    1
    27    13    15    1
    28    13    27    1
    29    15    16   am
    30    15    41    1
    31    16    17    2
    32    16    18    1
    33    18    19    1
    34    18    42    1
    35    18    43    1
    36    19    20    1
    37    19    22    1
    38    19    21    1
    39    21    22    1
    40    21    44    1
    41    21    45    1
    42    22    23    1
    43    22    24    1
    44    24    26    1
    45    24    25    1
    46    24    46    1
    47    25    26    1
    48    25    47    1
    49    25    48    1
    50    26    49    1
    51    26    50    1
    52    27    51    1
    53    27    52    1
    54    28    29   am
    55    28    53    1
    56    29    30    2
@<TRIPOS>SUBSTRUCTURE
     1 ZINC000980108339        1 TEMP              0 ****  ****    0 ROOT


##########                                Name:    ZINC000471198073
##########                DOCK_Rotatable_Bonds:                  12
##########                         Heavy_Atoms:                  30
##########                    Molecular_Weight:             409.528
##########                DOCK_Rotatable_Bonds:                  12
##########                       Formal_Charge:          -0.0399998
##########                     HBond_Acceptors:                   6
##########                        HBond_Donors:                   3
##########                         Heavy_Atoms:                  30
##########                          Grid_Score:          -36.766506
##########                     Grid_vdw_energy:          -31.612980
##########                      Grid_es_energy:           -5.153527
##########           Internal_energy_repulsive:           26.474733

@<TRIPOS>MOLECULE
ZINC000471198073
 61 62 1 0 0
SMALL
USER_CHARGES


@<TRIPOS>ATOM
      1 C1        -10.1613   -2.4038   57.9378 C.3     1  ZINC000471198073   -0.1400
      2 C2        -10.0583   -2.8292   59.4039 C.3     1  ZINC000471198073   -0.1100
      3 C3         -8.7726   -3.6317   59.6130 C.3     1  ZINC000471198073   -0.1500
      4 C4        -10.0344   -1.6046   60.2818 C.2     1  ZINC000471198073    0.5200
      5 O5         -9.6320   -0.5492   59.8398 O.2     1  ZINC000471198073   -0.5200
      6 N6        -10.4602   -1.6819   61.5582 N.am    1  ZINC000471198073   -0.6700
      7 C7        -10.4379   -0.5448   62.3734 C.ar    1  ZINC000471198073    0.1600
      8 C8        -11.5978    0.1944   62.5673 C.ar    1  ZINC000471198073   -0.1500
      9 C9        -11.5771    1.3174   63.3724 C.ar    1  ZINC000471198073   -0.0800
     10 C10       -10.4037    1.7086   63.9870 C.ar    1  ZINC000471198073   -0.1300
     11 C11        -9.2393    0.9736   63.7967 C.ar    1  ZINC000471198073    0.1500
     12 N12        -8.0524    1.3701   64.4183 N.am    1  ZINC000471198073   -0.6400
     13 C13        -7.6062    0.7074   65.5038 C.2     1  ZINC000471198073    0.5100
     14 O14        -8.2353   -0.2338   65.9414 O.2     1  ZINC000471198073   -0.5000
     15 C15        -6.3375    1.1312   66.1682 C.2     1  ZINC000471198073    0.5100
     16 O16        -6.0703    0.7260   67.2805 O.2     1  ZINC000471198073   -0.5100
     17 N17        -5.4894    1.9637   65.5325 N.am    1  ZINC000471198073   -0.7000
     18 C18        -4.2457    2.3808   66.1848 C.3     1  ZINC000471198073    0.1200
     19 C19        -4.0027    3.8673   65.9165 C.3     1  ZINC000471198073   -0.0900
     20 H20        -3.2351    4.2383   66.5958 H       1  ZINC000471198073    0.0800
     21 C21        -3.5386    4.0555   64.4708 C.3     1  ZINC000471198073   -0.0800
     22 C22        -2.3213    3.2035   64.2191 C.ar    1  ZINC000471198073   -0.0800
     23 C23        -2.4275    2.0537   63.4592 C.ar    1  ZINC000471198073   -0.1200
     24 C24        -1.3109    1.2722   63.2283 C.ar    1  ZINC000471198073   -0.1200
     25 C25        -0.0879    1.6408   63.7570 C.ar    1  ZINC000471198073   -0.1200
     26 C26         0.0185    2.7912   64.5161 C.ar    1  ZINC000471198073   -0.1200
     27 C27        -1.0973    3.5749   64.7433 C.ar    1  ZINC000471198073   -0.1200
     28 C28        -5.3011    4.6449   66.1407 C.3     1  ZINC000471198073   -0.1000
     29 C29        -5.7794    4.4350   67.5788 C.3     1  ZINC000471198073   -0.1600
     30 C30        -5.0515    6.1350   65.8986 C.3     1  ZINC000471198073   -0.1700
     31 C31        -9.2585   -0.1578   62.9933 C.ar    1  ZINC000471198073   -0.1400
     32 H32       -10.1786   -3.2895   57.3029 H       1  ZINC000471198073    0.0700
     33 H33       -11.0773   -1.8320   57.7889 H       1  ZINC000471198073    0.0600
     34 H34        -9.3014   -1.7867   57.6773 H       1  ZINC000471198073    0.0600
     35 H35       -10.9182   -3.4462   59.6644 H       1  ZINC000471198073    0.1000
     36 H36        -7.9127   -3.0147   59.3525 H       1  ZINC000471198073    0.0600
     37 H37        -8.6992   -3.9348   60.6574 H       1  ZINC000471198073    0.0600
     38 H38        -8.7899   -4.5175   58.9779 H       1  ZINC000471198073    0.0700
     39 H39       -10.7819   -2.5259   61.9118 H       1  ZINC000471198073    0.4100
     40 H40       -12.5170   -0.1086   62.0879 H       1  ZINC000471198073    0.1300
     41 H41       -12.4803    1.8905   63.5213 H       1  ZINC000471198073    0.1300
     42 H42       -10.3907    2.5867   64.6156 H       1  ZINC000471198073    0.1400
     43 H43        -7.5495    2.1224   64.0686 H       1  ZINC000471198073    0.4200
     44 H44        -5.7024    2.2866   64.6430 H       1  ZINC000471198073    0.4200
     45 H45        -4.3252    2.2137   67.2590 H       1  ZINC000471198073    0.0700
     46 H46        -3.4141    1.7991   65.7872 H       1  ZINC000471198073    0.0800
     47 H47        -4.3372    3.7579   63.7913 H       1  ZINC000471198073    0.0800
     48 H48        -3.2900    5.1033   64.3026 H       1  ZINC000471198073    0.0800
     49 H49        -3.3830    1.7656   63.0462 H       1  ZINC000471198073    0.1200
     50 H50        -1.3941    0.3734   62.6353 H       1  ZINC000471198073    0.1200
     51 H51         0.7843    1.0299   63.5772 H       1  ZINC000471198073    0.1200
     52 H52         0.9738    3.0791   64.9293 H       1  ZINC000471198073    0.1200
     53 H53        -1.0142    4.4737   65.3364 H       1  ZINC000471198073    0.1200
     54 H54        -6.0631    4.2869   65.4484 H       1  ZINC000471198073    0.0800
     55 H55        -5.0631    4.8811   68.2688 H       1  ZINC000471198073    0.0600
     56 H56        -6.7530    4.9071   67.7104 H       1  ZINC000471198073    0.0600
     57 H57        -5.8629    3.3674   67.7818 H       1  ZINC000471198073    0.0600
     58 H58        -4.5916    6.2720   64.9200 H       1  ZINC000471198073    0.0600
     59 H59        -5.9992    6.6723   65.9331 H       1  ZINC000471198073    0.0600
     60 H60        -4.3861    6.5219   66.6703 H       1  ZINC000471198073    0.0700
     61 H61        -8.3552   -0.7307   62.8438 H       1  ZINC000471198073    0.1400
@<TRIPOS>BOND
     1     1     2    1
     2     1    32    1
     3     1    33    1
     4     1    34    1
     5     2     3    1
     6     2     4    1
     7     2    35    1
     8     3    36    1
     9     3    37    1
    10     3    38    1
    11     4     5    2
    12     4     6   am
    13     6     7    1
    14     6    39    1
    15     7    31   ar
    16     7     8   ar
    17     8     9   ar
    18     8    40    1
    19     9    10   ar
    20     9    41    1
    21    10    11   ar
    22    10    42    1
    23    11    12    1
    24    11    31   ar
    25    12    13   am
    26    12    43    1
    27    13    14    2
    28    13    15    1
    29    15    16    2
    30    15    17   am
    31    17    18    1
    32    17    44    1
    33    18    19    1
    34    18    45    1
    35    18    46    1
    36    19    20    1
    37    19    21    1
    38    19    28    1
    39    21    22    1
    40    21    47    1
    41    21    48    1
    42    22    27   ar
    43    22    23   ar
    44    23    24   ar
    45    23    49    1
    46    24    25   ar
    47    24    50    1
    48    25    26   ar
    49    25    51    1
    50    26    27   ar
    51    26    52    1
    52    27    53    1
    53    28    29    1
    54    28    30    1
    55    28    54    1
    56    29    55    1
    57    29    56    1
    58    29    57    1
    59    30    58    1
    60    30    59    1
    61    30    60    1
    62    31    61    1
@<TRIPOS>SUBSTRUCTURE
     1 ZINC000471198073        1 TEMP              0 ****  ****    0 ROOT


##########                                Name:    ZINC000182378855
##########                DOCK_Rotatable_Bonds:                   8
##########                         Heavy_Atoms:                  27
##########                    Molecular_Weight:              394.83
##########                DOCK_Rotatable_Bonds:                   8
##########                       Formal_Charge:          -0.0200001
##########                     HBond_Acceptors:                   8
##########                        HBond_Donors:                   1
##########                         Heavy_Atoms:                  27
##########                          Grid_Score:          -36.742081
##########                     Grid_vdw_energy:          -36.993584
##########                      Grid_es_energy:            0.251502
##########           Internal_energy_repulsive:            9.519404

@<TRIPOS>MOLECULE
ZINC000182378855
 47 49 1 0 0
SMALL
USER_CHARGES


@<TRIPOS>ATOM
      1 C1         -3.0875    2.1702   49.2623 C.3     1  ZINC000182378855    0.0300
      2 O2         -4.1703    2.2182   50.1935 O.3     1  ZINC000182378855   -0.3900
      3 C3         -4.9987    1.0538   50.1822 C.3     1  ZINC000182378855    0.0600
      4 C4         -6.1058    1.2053   51.2273 C.3     1  ZINC000182378855    0.0700
      5 O5         -6.8998    0.0175   51.2558 O.3     1  ZINC000182378855   -0.2900
      6 C6         -7.9114   -0.0258   52.1590 C.ar    1  ZINC000182378855    0.3300
      7 C7         -8.7281   -1.1469   52.2215 C.ar    1  ZINC000182378855   -0.1300
      8 C8         -9.7647   -1.1765   53.1562 C.ar    1  ZINC000182378855   -0.0600
      9 C9        -10.6617   -2.3512   53.2604 C.2     1  ZINC000182378855    0.5600
     10 O10       -10.6442   -3.2074   52.3983 O.2     1  ZINC000182378855   -0.5200
     11 N11       -11.4970   -2.4701   54.3113 N.am    1  ZINC000182378855   -0.7100
     12 C12       -12.3853   -3.6307   54.4134 C.3     1  ZINC000182378855    0.1200
     13 H13       -11.8820   -4.5283   54.0540 H       1  ZINC000182378855    0.1100
     14 C14       -13.6887   -3.3864   53.6204 C.3     1  ZINC000182378855   -0.1700
     15 C15       -14.7990   -3.4577   54.6920 C.3     1  ZINC000182378855    0.0400
     16 O16       -14.1342   -3.1392   55.9340 O.3     1  ZINC000182378855   -0.3600
     17 C17       -12.8623   -3.8206   55.8704 C.3     1  ZINC000182378855    0.1100
     18 H18       -12.9879   -4.8801   56.0934 H       1  ZINC000182378855    0.1000
     19 C19       -11.8829   -3.1939   56.8290 C.ar    1  ZINC000182378855   -0.0500
     20 C20       -11.9365   -1.8361   57.0818 C.ar    1  ZINC000182378855   -0.1100
     21 C21       -11.0424   -1.2603   57.9653 C.ar    1  ZINC000182378855   -0.0800
     22 C22       -10.0861   -2.0408   58.5886 C.ar    1  ZINC000182378855   -0.0700
     23 Cl23       -8.9592   -1.3170   59.6930 Cl      1  ZINC000182378855   -0.0400
     24 C24       -10.0283   -3.4013   58.3312 C.ar    1  ZINC000182378855    0.1200
     25 F25        -9.0949   -4.1655   58.9396 F       1  ZINC000182378855   -0.1200
     26 C26       -10.9279   -3.9766   57.4507 C.ar    1  ZINC000182378855   -0.1300
     27 C27        -9.9336   -0.0672   53.9922 C.ar    1  ZINC000182378855   -0.1900
     28 C28        -9.0769    1.0073   53.8641 C.ar    1  ZINC000182378855    0.1400
     29 N29        -8.1048    0.9977   52.9730 N.ar    1  ZINC000182378855   -0.5200
     30 H30        -3.4819    2.0659   48.2515 H       1  ZINC000182378855    0.0400
     31 H31        -2.5068    3.0900   49.3327 H       1  ZINC000182378855    0.0900
     32 H32        -2.4478    1.3182   49.4924 H       1  ZINC000182378855    0.0400
     33 H33        -5.4449    0.9350   49.1948 H       1  ZINC000182378855    0.0600
     34 H34        -4.3956    0.1766   50.4164 H       1  ZINC000182378855    0.0700
     35 H35        -5.6596    1.3677   52.2084 H       1  ZINC000182378855    0.0800
     36 H36        -6.7352    2.0569   50.9690 H       1  ZINC000182378855    0.0800
     37 H37        -8.5642   -1.9827   51.5575 H       1  ZINC000182378855    0.1600
     38 H38       -11.5102   -1.7872   55.0000 H       1  ZINC000182378855    0.4000
     39 H39       -13.6721   -2.4021   53.1524 H       1  ZINC000182378855    0.0900
     40 H40       -13.8310   -4.1646   52.8706 H       1  ZINC000182378855    0.0900
     41 H41       -15.5782   -2.7256   54.4802 H       1  ZINC000182378855    0.1000
     42 H42       -15.2229   -4.4610   54.7331 H       1  ZINC000182378855    0.0700
     43 H43       -12.6801   -1.2250   56.5917 H       1  ZINC000182378855    0.1500
     44 H44       -11.0881   -0.2000   58.1653 H       1  ZINC000182378855    0.1500
     45 H45       -10.8841   -5.0369   57.2496 H       1  ZINC000182378855    0.1500
     46 H46       -10.7239   -0.0522   54.7282 H       1  ZINC000182378855    0.1400
     47 H47        -9.2016    1.8666   54.5063 H       1  ZINC000182378855    0.1700
@<TRIPOS>BOND
     1     1     2    1
     2     1    30    1
     3     1    31    1
     4     1    32    1
     5     2     3    1
     6     3     4    1
     7     3    33    1
     8     3    34    1
     9     4     5    1
    10     4    35    1
    11     4    36    1
    12     5     6    1
    13     6    29   ar
    14     6     7   ar
    15     7     8   ar
    16     7    37    1
    17     8     9    1
    18     8    27   ar
    19     9    10    2
    20     9    11   am
    21    11    12    1
    22    11    38    1
    23    12    13    1
    24    12    17    1
    25    12    14    1
    26    14    15    1
    27    14    39    1
    28    14    40    1
    29    15    16    1
    30    15    41    1
    31    15    42    1
    32    16    17    1
    33    17    18    1
    34    17    19    1
    35    19    26   ar
    36    19    20   ar
    37    20    21   ar
    38    20    43    1
    39    21    22   ar
    40    21    44    1
    41    22    23    1
    42    22    24   ar
    43    24    25    1
    44    24    26   ar
    45    26    45    1
    46    27    28   ar
    47    27    46    1
    48    28    29   ar
    49    28    47    1
@<TRIPOS>SUBSTRUCTURE
     1 ZINC000182378855        1 TEMP              0 ****  ****    0 ROOT


##########                                Name:    ZINC000859608860
##########                DOCK_Rotatable_Bonds:                   8
##########                         Heavy_Atoms:                  24
##########                    Molecular_Weight:             394.268
##########                DOCK_Rotatable_Bonds:                   8
##########                       Formal_Charge:          -0.0200003
##########                     HBond_Acceptors:                   6
##########                        HBond_Donors:                   1
##########                         Heavy_Atoms:                  24
##########                          Grid_Score:          -36.721966
##########                     Grid_vdw_energy:          -35.009918
##########                      Grid_es_energy:           -1.712049
##########           Internal_energy_repulsive:           11.909542

@<TRIPOS>MOLECULE
ZINC000859608860
 44 45 1 0 0
SMALL
USER_CHARGES


@<TRIPOS>ATOM
      1 C1        -11.4318   -3.7393   53.5259 C.3     1  ZINC000859608860   -0.1400
      2 C2        -12.3499   -2.5154   53.5059 C.3     1  ZINC000859608860   -0.0800
      3 C3        -11.8412   -1.4798   54.5106 C.3     1  ZINC000859608860   -0.1400
      4 C4        -12.3557   -1.9051   52.1030 C.3     1  ZINC000859608860   -0.1400
      5 C5        -13.7710   -2.9378   53.8842 C.3     1  ZINC000859608860    0.1300
      6 N6        -13.8199   -3.2636   55.3117 N.am    1  ZINC000859608860   -0.7300
      7 C7        -13.8720   -4.5508   55.7077 C.2     1  ZINC000859608860    0.5100
      8 O8        -13.8799   -5.4393   54.8823 O.2     1  ZINC000859608860   -0.5100
      9 C9        -13.9204   -4.8861   57.1761 C.3     1  ZINC000859608860    0.0500
     10 O10       -13.0536   -3.9801   57.9083 O.3     1  ZINC000859608860   -0.3100
     11 C11       -11.7443   -4.2963   57.9632 C.2     1  ZINC000859608860    0.5600
     12 O12       -11.3097   -5.2054   57.2835 O.2     1  ZINC000859608860   -0.5100
     13 C13       -10.8413   -3.5409   58.8459 C.2     1  ZINC000859608860   -0.0400
     14 C14       -11.2163   -2.6799   59.8369 C.2     1  ZINC000859608860    0.0500
     15 N15       -10.0713   -2.2053   60.3986 N.pl3   1  ZINC000859608860   -0.4100
     16 C16        -9.9854   -1.2901   61.4575 C.ar    1  ZINC000859608860    0.1400
     17 C17       -10.9642   -0.3186   61.6180 C.ar    1  ZINC000859608860   -0.1200
     18 C18       -10.8777    0.5814   62.6620 C.ar    1  ZINC000859608860   -0.0600
     19 C19        -9.8167    0.5155   63.5476 C.ar    1  ZINC000859608860   -0.1000
     20 Br20       -9.7014    1.7494   64.9759 Br      1  ZINC000859608860   -0.0300
     21 C21        -8.8402   -0.4520   63.3901 C.ar    1  ZINC000859608860   -0.0600
     22 C22        -8.9247   -1.3573   62.3506 C.ar    1  ZINC000859608860   -0.1200
     23 C23        -9.0241   -2.7804   59.7460 C.2     1  ZINC000859608860    0.2000
     24 N24        -9.4841   -3.5784   58.8266 N.2     1  ZINC000859608860   -0.4300
     25 H25       -11.4276   -4.1741   54.5254 H       1  ZINC000859608860    0.0500
     26 H26       -11.7942   -4.4770   52.8101 H       1  ZINC000859608860    0.0600
     27 H27       -10.4194   -3.4383   53.2563 H       1  ZINC000859608860    0.0600
     28 H28       -10.8288   -1.1789   54.2411 H       1  ZINC000859608860    0.0600
     29 H29       -12.4952   -0.6079   54.4963 H       1  ZINC000859608860    0.0600
     30 H30       -11.8370   -1.9146   55.5101 H       1  ZINC000859608860    0.0500
     31 H31       -12.7182   -2.6430   51.3872 H       1  ZINC000859608860    0.0600
     32 H32       -13.0098   -1.0333   52.0887 H       1  ZINC000859608860    0.0600
     33 H33       -11.3433   -1.6042   51.8334 H       1  ZINC000859608860    0.0600
     34 H34       -14.4610   -2.1205   53.6742 H       1  ZINC000859608860    0.0700
     35 H35       -14.0569   -3.8135   53.3016 H       1  ZINC000859608860    0.0700
     36 H36       -13.8147   -2.5530   55.9718 H       1  ZINC000859608860    0.4000
     37 H37       -14.9431   -4.7830   57.5388 H       1  ZINC000859608860    0.1000
     38 H38       -13.5835   -5.9118   57.3259 H       1  ZINC000859608860    0.1000
     39 H39       -12.2267   -2.4244   60.1202 H       1  ZINC000859608860    0.2000
     40 H40       -11.7924   -0.2665   60.9267 H       1  ZINC000859608860    0.1400
     41 H41       -11.6387    1.3374   62.7869 H       1  ZINC000859608860    0.1500
     42 H42        -8.0129   -0.5014   64.0827 H       1  ZINC000859608860    0.1500
     43 H43        -8.1622   -2.1123   62.2281 H       1  ZINC000859608860    0.1500
     44 H44        -7.9800   -2.6056   59.9595 H       1  ZINC000859608860    0.2200
@<TRIPOS>BOND
     1     1     2    1
     2     1    25    1
     3     1    26    1
     4     1    27    1
     5     2     3    1
     6     2     4    1
     7     2     5    1
     8     3    28    1
     9     3    29    1
    10     3    30    1
    11     4    31    1
    12     4    32    1
    13     4    33    1
    14     5     6    1
    15     5    34    1
    16     5    35    1
    17     6     7   am
    18     6    36    1
    19     7     8    2
    20     7     9    1
    21     9    10    1
    22     9    37    1
    23     9    38    1
    24    10    11    1
    25    11    12    2
    26    11    13    1
    27    13    24    1
    28    13    14    2
    29    14    15    1
    30    14    39    1
    31    15    16    1
    32    15    23    1
    33    16    22   ar
    34    16    17   ar
    35    17    18   ar
    36    17    40    1
    37    18    19   ar
    38    18    41    1
    39    19    20    1
    40    19    21   ar
    41    21    22   ar
    42    21    42    1
    43    22    43    1
    44    23    24    2
    45    23    44    1
@<TRIPOS>SUBSTRUCTURE
     1 ZINC000859608860        1 TEMP              0 ****  ****    0 ROOT


##########                                Name:    ZINC001408567397
##########                DOCK_Rotatable_Bonds:                   9
##########                         Heavy_Atoms:                  24
##########                    Molecular_Weight:             336.434
##########                DOCK_Rotatable_Bonds:                   9
##########                       Formal_Charge:          -0.0199996
##########                     HBond_Acceptors:                   7
##########                        HBond_Donors:                   2
##########                         Heavy_Atoms:                  24
##########                          Grid_Score:          -36.700771
##########                     Grid_vdw_energy:          -36.335258
##########                      Grid_es_energy:           -0.365514
##########           Internal_energy_repulsive:           20.156067

@<TRIPOS>MOLECULE
ZINC001408567397
 52 53 1 0 0
SMALL
USER_CHARGES


@<TRIPOS>ATOM
      1 C1        -10.2508   -3.5411   58.6365 C.3     1  ZINC001408567397   -0.0800
      2 C2         -9.8556   -2.7362   59.8478 C.2     1  ZINC001408567397    0.0900
      3 N3         -8.8344   -2.9772   60.6293 N.2     1  ZINC001408567397   -0.2900
      4 N4         -8.8136   -2.0028   61.6354 N.pl3   1  ZINC001408567397   -0.4700
      5 C5         -9.8562   -1.1711   61.4298 C.2     1  ZINC001408567397    0.1100
      6 C6        -10.2195    0.0237   62.2732 C.3     1  ZINC001408567397   -0.1000
      7 C7        -10.5138   -1.5990   60.3272 C.2     1  ZINC001408567397   -0.2200
      8 C8        -11.7432   -0.9671   59.7271 C.3     1  ZINC001408567397   -0.0600
      9 C9        -12.9231   -1.8855   59.9157 C.2     1  ZINC001408567397    0.5100
     10 O10       -13.1604   -2.3508   61.0102 O.2     1  ZINC001408567397   -0.5300
     11 N11       -13.7145   -2.1897   58.8680 N.am    1  ZINC001408567397   -0.7300
     12 C12       -14.8625   -3.0812   59.0517 C.3     1  ZINC001408567397    0.1100
     13 C13       -15.4212   -3.4814   57.6849 C.3     1  ZINC001408567397    0.1000
     14 N14       -14.3703   -4.1338   56.8998 N.am    1  ZINC001408567397   -0.6200
     15 C15       -13.8345   -5.4289   57.3264 C.3     1  ZINC001408567397    0.0700
     16 C16       -13.8965   -3.5425   55.7851 C.2     1  ZINC001408567397    0.5100
     17 O17       -14.3390   -2.4698   55.4329 O.2     1  ZINC001408567397   -0.5300
     18 C18       -12.8168   -4.2144   54.9767 C.3     1  ZINC001408567397   -0.1300
     19 C19       -12.3953   -3.2975   53.8267 C.3     1  ZINC001408567397   -0.1100
     20 H20       -13.2823   -2.9245   53.3145 H       1  ZINC001408567397    0.0900
     21 C21       -11.5905   -2.1180   54.3810 C.3     1  ZINC001408567397   -0.1200
     22 C22       -11.1085   -1.2499   53.2147 C.3     1  ZINC001408567397   -0.1600
     23 C23       -10.2877   -2.1121   52.2521 C.3     1  ZINC001408567397    0.0600
     24 O24       -11.0850   -3.2076   51.7981 O.3     1  ZINC001408567397   -0.3800
     25 C25       -11.5262   -4.0810   52.8397 C.3     1  ZINC001408567397    0.0600
     26 H26        -9.7492   -3.1413   57.7552 H       1  ZINC001408567397    0.0800
     27 H27        -9.9585   -4.5813   58.7803 H       1  ZINC001408567397    0.0700
     28 H28       -11.3304   -3.4828   58.4979 H       1  ZINC001408567397    0.0800
     29 H29        -8.1644   -1.9374   62.3532 H       1  ZINC001408567397    0.4400
     30 H30        -9.7141    0.9086   61.8865 H       1  ZINC001408567397    0.0800
     31 H31       -11.2981    0.1776   62.2399 H       1  ZINC001408567397    0.0900
     32 H32        -9.9091   -0.1510   63.3034 H       1  ZINC001408567397    0.0700
     33 H33       -11.9408   -0.0158   60.2211 H       1  ZINC001408567397    0.1000
     34 H34       -11.5817   -0.7971   58.6626 H       1  ZINC001408567397    0.1000
     35 H35       -13.5240   -1.8186   57.9924 H       1  ZINC001408567397    0.4000
     36 H36       -14.5465   -3.9743   59.5908 H       1  ZINC001408567397    0.0700
     37 H37       -15.6347   -2.5661   59.6233 H       1  ZINC001408567397    0.0700
     38 H38       -16.2543   -4.1710   57.8206 H       1  ZINC001408567397    0.0800
     39 H39       -15.7679   -2.5917   57.1593 H       1  ZINC001408567397    0.0900
     40 H40       -14.4175   -6.2304   56.8730 H       1  ZINC001408567397    0.0600
     41 H41       -12.7944   -5.5133   57.0114 H       1  ZINC001408567397    0.0800
     42 H42       -13.8928   -5.5064   58.4120 H       1  ZINC001408567397    0.0800
     43 H43       -11.9565   -4.4153   55.6151 H       1  ZINC001408567397    0.1000
     44 H44       -13.1963   -5.1529   54.5725 H       1  ZINC001408567397    0.1000
     45 H45       -12.2222   -1.5237   55.0412 H       1  ZINC001408567397    0.0700
     46 H46       -10.7307   -2.4923   54.9366 H       1  ZINC001408567397    0.0600
     47 H47       -11.9689   -0.8355   52.6892 H       1  ZINC001408567397    0.0700
     48 H48       -10.4883   -0.4387   53.5963 H       1  ZINC001408567397    0.0700
     49 H49        -9.9780   -1.5095   51.3983 H       1  ZINC001408567397    0.0900
     50 H50        -9.4060   -2.4932   52.7673 H       1  ZINC001408567397    0.0500
     51 H51       -10.6612   -4.4884   53.3631 H       1  ZINC001408567397    0.0400
     52 H52       -12.1075   -4.8961   52.4087 H       1  ZINC001408567397    0.1100
@<TRIPOS>BOND
     1     1     2    1
     2     1    26    1
     3     1    27    1
     4     1    28    1
     5     2     7    1
     6     2     3    2
     7     3     4    1
     8     4     5    1
     9     4    29    1
    10     5     6    1
    11     5     7    2
    12     6    30    1
    13     6    31    1
    14     6    32    1
    15     7     8    1
    16     8     9    1
    17     8    33    1
    18     8    34    1
    19     9    10    2
    20     9    11   am
    21    11    12    1
    22    11    35    1
    23    12    13    1
    24    12    36    1
    25    12    37    1
    26    13    14    1
    27    13    38    1
    28    13    39    1
    29    14    15    1
    30    14    16   am
    31    15    40    1
    32    15    41    1
    33    15    42    1
    34    16    17    2
    35    16    18    1
    36    18    19    1
    37    18    43    1
    38    18    44    1
    39    19    20    1
    40    19    25    1
    41    19    21    1
    42    21    22    1
    43    21    45    1
    44    21    46    1
    45    22    23    1
    46    22    47    1
    47    22    48    1
    48    23    24    1
    49    23    49    1
    50    23    50    1
    51    24    25    1
    52    25    51    1
    53    25    52    1
@<TRIPOS>SUBSTRUCTURE
     1 ZINC001408567397        1 TEMP              0 ****  ****    0 ROOT


##########                                Name:    ZINC000826435081
##########                DOCK_Rotatable_Bonds:                   7
##########                         Heavy_Atoms:                  28
##########                    Molecular_Weight:             388.361
##########                DOCK_Rotatable_Bonds:                   7
##########                       Formal_Charge:           0.0099996
##########                     HBond_Acceptors:                  12
##########                        HBond_Donors:                   3
##########                         Heavy_Atoms:                  28
##########                          Grid_Score:          -36.693676
##########                     Grid_vdw_energy:          -35.552063
##########                      Grid_es_energy:           -1.141614
##########           Internal_energy_repulsive:            4.816338

@<TRIPOS>MOLECULE
ZINC000826435081
 45 48 1 0 0
SMALL
USER_CHARGES


@<TRIPOS>ATOM
      1 O1        -11.2923   -1.5750   60.7627 O.2     1  ZINC000826435081   -0.5700
      2 C2        -10.0797   -1.5649   60.8523 C.2     1  ZINC000826435081    0.7200
      3 N3         -9.4805   -0.8218   61.8037 N.am    1  ZINC000826435081   -0.7300
      4 C4        -10.2898   -0.0214   62.7259 C.3     1  ZINC000826435081    0.1500
      5 C5         -9.5048    0.2182   64.0171 C.3     1  ZINC000826435081    0.0400
      6 H6         -9.2658   -0.7389   64.4810 H       1  ZINC000826435081    0.0800
      7 C7        -10.3486    1.0575   64.9809 C.3     1  ZINC000826435081    0.0300
      8 O8         -9.5673    1.3710   66.1378 O.3     1  ZINC000826435081   -0.3800
      9 C9         -8.3577    2.0742   65.8385 C.3     1  ZINC000826435081    0.0200
     10 C10        -7.5139    1.2348   64.8748 C.3     1  ZINC000826435081    0.0200
     11 O11        -8.2945    0.9199   63.7178 O.3     1  ZINC000826435081   -0.3700
     12 N12        -9.3352   -2.3013   60.0039 N.am    1  ZINC000826435081   -0.6400
     13 C13        -9.9581   -3.0738   59.0147 C.2     1  ZINC000826435081    0.3300
     14 N14       -10.5946   -2.6114   57.9645 N.2     1  ZINC000826435081   -0.2800
     15 N15       -11.0702   -3.7021   57.2252 N.pl3   1  ZINC000826435081   -0.3300
     16 C16       -11.8011   -3.6334   56.0339 C.ar    1  ZINC000826435081    0.2200
     17 C17       -11.1461   -3.6749   54.8122 C.ar    1  ZINC000826435081   -0.1300
     18 C18       -11.8683   -3.6069   53.6360 C.ar    1  ZINC000826435081   -0.0500
     19 C19       -13.2467   -3.4968   53.6679 C.ar    1  ZINC000826435081   -0.1500
     20 C20       -13.9141   -3.4541   54.8784 C.ar    1  ZINC000826435081    0.1500
     21 F21       -15.2605   -3.3470   54.9053 F       1  ZINC000826435081   -0.1100
     22 C22       -13.1956   -3.5283   56.0710 C.ar    1  ZINC000826435081   -0.0500
     23 C23       -13.9054   -3.4832   57.3730 C.2     1  ZINC000826435081    0.2100
     24 N24       -14.3338   -2.4050   57.9996 N.2     1  ZINC000826435081   -0.2800
     25 N25       -14.8969   -2.7835   59.0952 N.pl3   1  ZINC000826435081   -0.2300
     26 N26       -14.8392   -4.0664   59.1829 N.2     1  ZINC000826435081   -0.0500
     27 N27       -14.2414   -4.5313   58.1388 N.2     1  ZINC000826435081   -0.2300
     28 C28       -10.6965   -4.8380   57.8690 C.2     1  ZINC000826435081    0.0700
     29 C29       -10.0038   -4.4772   58.9730 C.2     1  ZINC000826435081   -0.2400
     30 H30        -8.5133   -0.8170   61.8779 H       1  ZINC000826435081    0.4000
     31 H31       -10.5284    0.9360   62.2628 H       1  ZINC000826435081    0.0800
     32 H32       -11.2128   -0.5540   62.9554 H       1  ZINC000826435081    0.0900
     33 H33       -10.6555    1.9798   64.4878 H       1  ZINC000826435081    0.0700
     34 H34       -11.2311    0.4919   65.2797 H       1  ZINC000826435081    0.1100
     35 H35        -8.5976    3.0306   65.3742 H       1  ZINC000826435081    0.0600
     36 H36        -7.7984    2.2447   66.7584 H       1  ZINC000826435081    0.1100
     37 H37        -6.6313    1.8003   64.5760 H       1  ZINC000826435081    0.1100
     38 H38        -7.2070    0.3125   65.3680 H       1  ZINC000826435081    0.0600
     39 H39        -8.3680   -2.2964   60.0780 H       1  ZINC000826435081    0.4100
     40 H40       -10.0700   -3.7601   54.7800 H       1  ZINC000826435081    0.1500
     41 H41       -11.3538   -3.6396   52.6869 H       1  ZINC000826435081    0.1500
     42 H42       -13.8037   -3.4435   52.7441 H       1  ZINC000826435081    0.1500
     43 H43       -15.3010   -2.1940   59.7510 H       1  ZINC000826435081    0.4800
     44 H44       -10.9101   -5.8486   57.5534 H       1  ZINC000826435081    0.1800
     45 H45        -9.5691   -5.1490   59.6983 H       1  ZINC000826435081    0.1800
@<TRIPOS>BOND
     1     1     2    2
     2     2     3   am
     3     2    12   am
     4     3     4    1
     5     3    30    1
     6     4     5    1
     7     4    31    1
     8     4    32    1
     9     5     6    1
    10     5    11    1
    11     5     7    1
    12     7     8    1
    13     7    33    1
    14     7    34    1
    15     8     9    1
    16     9    10    1
    17     9    35    1
    18     9    36    1
    19    10    11    1
    20    10    37    1
    21    10    38    1
    22    12    13    1
    23    12    39    1
    24    13    29    1
    25    13    14    2
    26    14    15    1
    27    15    16    1
    28    15    28    1
    29    16    22   ar
    30    16    17   ar
    31    17    18   ar
    32    17    40    1
    33    18    19   ar
    34    18    41    1
    35    19    20   ar
    36    19    42    1
    37    20    21    1
    38    20    22   ar
    39    22    23    1
    40    23    27    1
    41    23    24    2
    42    24    25    1
    43    25    26    1
    44    25    43    1
    45    26    27    2
    46    28    29    2
    47    28    44    1
    48    29    45    1
@<TRIPOS>SUBSTRUCTURE
     1 ZINC000826435081        1 TEMP              0 ****  ****    0 ROOT


##########                                Name:    ZINC001289445798
##########                DOCK_Rotatable_Bonds:                  10
##########                         Heavy_Atoms:                  25
##########                    Molecular_Weight:             352.434
##########                DOCK_Rotatable_Bonds:                  10
##########                       Formal_Charge:          0.00999932
##########                     HBond_Acceptors:                   8
##########                        HBond_Donors:                   2
##########                         Heavy_Atoms:                  25
##########                          Grid_Score:          -36.602154
##########                     Grid_vdw_energy:          -36.636166
##########                      Grid_es_energy:            0.034011
##########           Internal_energy_repulsive:           23.159458

@<TRIPOS>MOLECULE
ZINC001289445798
 53 54 1 0 0
SMALL
USER_CHARGES


@<TRIPOS>ATOM
      1 C1        -14.1795   -1.1124   50.7241 C.3     1  ZINC001289445798   -0.1500
      2 C2        -12.7066   -1.2619   51.1097 C.3     1  ZINC001289445798    0.0600
      3 O3        -12.6112   -1.8704   52.3993 O.3     1  ZINC001289445798   -0.3700
      4 C4        -11.2699   -2.0840   52.8433 C.3     1  ZINC001289445798    0.1100
      5 H5        -10.5923   -2.0311   51.9913 H       1  ZINC001289445798    0.0700
      6 C6        -11.1624   -3.4639   53.4955 C.3     1  ZINC001289445798   -0.1400
      7 C7        -12.4970   -3.8486   54.0802 C.2     1  ZINC001289445798    0.5400
      8 O8        -13.4451   -4.0448   53.3498 O.2     1  ZINC001289445798   -0.5200
      9 N9        -12.6369   -3.9746   55.4147 N.am    1  ZINC001289445798   -0.6200
     10 C10       -11.5778   -3.7597   56.4115 C.3     1  ZINC001289445798    0.1000
     11 C11       -12.2045   -3.9894   57.8028 C.3     1  ZINC001289445798    0.1400
     12 H12       -12.0177   -5.0067   58.1468 H       1  ZINC001289445798    0.1200
     13 N13       -11.6922   -3.0151   58.7694 N.am    1  ZINC001289445798   -0.7200
     14 C14       -10.4882   -3.2056   59.3445 C.2     1  ZINC001289445798    0.6000
     15 O15        -9.8277   -4.1871   59.0621 O.2     1  ZINC001289445798   -0.5100
     16 C16        -9.9726   -2.2259   60.3142 C.2     1  ZINC001289445798   -0.0500
     17 C17       -10.1231   -0.8509   60.2658 C.2     1  ZINC001289445798   -0.1400
     18 C18        -9.4635   -0.3666   61.3977 C.2     1  ZINC001289445798    0.0000
     19 N19        -8.9721   -1.3919   62.0454 N.2     1  ZINC001289445798   -0.2700
     20 N20        -9.2548   -2.4919   61.4455 N.pl3   1  ZINC001289445798   -0.3800
     21 C21       -13.7180   -3.7670   57.5432 C.3     1  ZINC001289445798    0.0700
     22 H22       -13.9658   -2.7058   57.5618 H       1  ZINC001289445798    0.0900
     23 O23       -14.5112   -4.4919   58.4854 O.3     1  ZINC001289445798   -0.3700
     24 C24       -15.5258   -3.7077   59.1159 C.3     1  ZINC001289445798    0.0300
     25 C25       -13.8792   -4.3444   56.1172 C.3     1  ZINC001289445798    0.0800
     26 C26       -10.8925   -1.0074   53.8627 C.3     1  ZINC001289445798   -0.1100
     27 C27       -10.2288    0.1675   53.1416 C.3     1  ZINC001289445798   -0.1500
     28 C28       -12.1530   -0.5194   54.5796 C.3     1  ZINC001289445798   -0.1500
     29 H29       -14.6859   -0.4869   51.4592 H       1  ZINC001289445798    0.0600
     30 H30       -14.2523   -0.6484   49.7405 H       1  ZINC001289445798    0.0700
     31 H31       -14.6498   -2.0953   50.6977 H       1  ZINC001289445798    0.0600
     32 H32       -12.2001   -1.8874   50.3746 H       1  ZINC001289445798    0.0500
     33 H33       -12.2363   -0.2789   51.1361 H       1  ZINC001289445798    0.0500
     34 H34       -10.8690   -4.1984   52.7454 H       1  ZINC001289445798    0.1100
     35 H35       -10.4138   -3.4343   54.2873 H       1  ZINC001289445798    0.1000
     36 H36       -10.7662   -4.4689   56.2488 H       1  ZINC001289445798    0.0800
     37 H37       -11.2014   -2.7393   56.3383 H       1  ZINC001289445798    0.0800
     38 H38       -12.2193   -2.2329   58.9956 H       1  ZINC001289445798    0.4000
     39 H39       -10.6405   -0.2750   59.5128 H       1  ZINC001289445798    0.1700
     40 H40        -9.3745    0.6702   61.6867 H       1  ZINC001289445798    0.1900
     41 H41        -8.9927   -3.3760   61.7463 H       1  ZINC001289445798    0.4400
     42 H42       -16.0834   -4.3300   59.8160 H       1  ZINC001289445798    0.0900
     43 H43       -15.0636   -2.8802   59.6541 H       1  ZINC001289445798    0.0400
     44 H44       -16.2046   -3.3150   58.3589 H       1  ZINC001289445798    0.0500
     45 H45       -14.7443   -3.9012   55.6241 H       1  ZINC001289445798    0.0900
     46 H46       -13.9781   -5.4292   56.1561 H       1  ZINC001289445798    0.0900
     47 H47       -10.1984   -1.4249   54.5921 H       1  ZINC001289445798    0.0800
     48 H48       -10.9229    0.5852   52.4123 H       1  ZINC001289445798    0.0600
     49 H49        -9.9600    0.9346   53.8680 H       1  ZINC001289445798    0.0600
     50 H50        -9.3307   -0.1800   52.6310 H       1  ZINC001289445798    0.0600
     51 H51       -12.5716   -1.3327   55.1725 H       1  ZINC001289445798    0.0600
     52 H52       -11.8991    0.3141   55.2343 H       1  ZINC001289445798    0.0600
     53 H53       -12.8865   -0.1923   53.8427 H       1  ZINC001289445798    0.0500
@<TRIPOS>BOND
     1     1     2    1
     2     1    29    1
     3     1    30    1
     4     1    31    1
     5     2     3    1
     6     2    32    1
     7     2    33    1
     8     3     4    1
     9     4     5    1
    10     4     6    1
    11     4    26    1
    12     6     7    1
    13     6    34    1
    14     6    35    1
    15     7     8    2
    16     7     9   am
    17     9    25    1
    18     9    10    1
    19    10    11    1
    20    10    36    1
    21    10    37    1
    22    11    12    1
    23    11    13    1
    24    11    21    1
    25    13    14   am
    26    13    38    1
    27    14    15    2
    28    14    16    1
    29    16    20    1
    30    16    17    2
    31    17    18    1
    32    17    39    1
    33    18    19    2
    34    18    40    1
    35    19    20    1
    36    20    41    1
    37    21    22    1
    38    21    23    1
    39    21    25    1
    40    23    24    1
    41    24    42    1
    42    24    43    1
    43    24    44    1
    44    25    45    1
    45    25    46    1
    46    26    27    1
    47    26    28    1
    48    26    47    1
    49    27    48    1
    50    27    49    1
    51    27    50    1
    52    28    51    1
    53    28    52    1
    54    28    53    1
@<TRIPOS>SUBSTRUCTURE
     1 ZINC001289445798        1 TEMP              0 ****  ****    0 ROOT


##########                                Name:    ZINC000892249927
##########                DOCK_Rotatable_Bonds:                   8
##########                         Heavy_Atoms:                  27
##########                    Molecular_Weight:             364.487
##########                DOCK_Rotatable_Bonds:                   8
##########                       Formal_Charge:          -0.0300015
##########                     HBond_Acceptors:                   4
##########                        HBond_Donors:                   1
##########                         Heavy_Atoms:                  27
##########                          Grid_Score:          -36.576248
##########                     Grid_vdw_energy:          -36.011353
##########                      Grid_es_energy:           -0.564897
##########           Internal_energy_repulsive:           11.788840

@<TRIPOS>MOLECULE
ZINC000892249927
 55 58 1 0 0
SMALL
USER_CHARGES


@<TRIPOS>ATOM
      1 O1         -8.8621   -1.9690   51.7751 O.2     1  ZINC000892249927   -0.5300
      2 C2         -9.3342   -1.1475   52.5322 C.2     1  ZINC000892249927    0.5100
      3 C3         -8.8674    0.2843   52.4767 C.3     1  ZINC000892249927   -0.1400
      4 C4         -7.4762    0.3430   51.8424 C.3     1  ZINC000892249927   -0.1000
      5 C5         -7.0240    1.8009   51.7391 C.3     1  ZINC000892249927   -0.0800
      6 C6         -5.5729    1.8493   51.3352 C.ar    1  ZINC000892249927   -0.0900
      7 C7         -5.1775    1.3343   50.1149 C.ar    1  ZINC000892249927   -0.1100
      8 C8         -3.8464    1.3787   49.7445 C.ar    1  ZINC000892249927   -0.1100
      9 C9         -2.9108    1.9386   50.5942 C.ar    1  ZINC000892249927   -0.0500
     10 C10        -1.4597    1.9865   50.1905 C.3     1  ZINC000892249927   -0.1200
     11 C11        -1.1407    1.9445   48.6947 C.3     1  ZINC000892249927   -0.1800
     12 C12        -0.9659    3.2472   49.4780 C.3     1  ZINC000892249927   -0.1700
     13 C13        -3.3065    2.4549   51.8139 C.ar    1  ZINC000892249927   -0.1200
     14 C14        -4.6381    2.4140   52.1826 C.ar    1  ZINC000892249927   -0.1100
     15 N15       -10.2803   -1.5139   53.4194 N.am    1  ZINC000892249927   -0.7300
     16 C16       -10.7341   -2.9058   53.4733 C.3     1  ZINC000892249927    0.1400
     17 H17        -9.8981   -3.5706   53.2558 H       1  ZINC000892249927    0.1000
     18 C18       -11.8439   -3.1234   52.4402 C.3     1  ZINC000892249927   -0.1700
     19 C19       -13.0433   -2.2417   52.7980 C.3     1  ZINC000892249927    0.0600
     20 O20       -13.4861   -2.5556   54.1199 O.3     1  ZINC000892249927   -0.3700
     21 C21       -12.5053   -2.3265   55.1336 C.3     1  ZINC000892249927    0.1400
     22 H22       -12.2049   -1.2789   55.1186 H       1  ZINC000892249927    0.0700
     23 C23       -13.0882   -2.6629   56.4820 C.ar    1  ZINC000892249927   -0.1400
     24 C24       -14.0605   -3.6437   56.6015 C.ar    1  ZINC000892249927   -0.0700
     25 C25       -14.5678   -3.9202   57.8621 C.ar    1  ZINC000892249927   -0.1700
     26 C26       -14.0907   -3.2138   58.9497 C.ar    1  ZINC000892249927    0.1000
     27 N27       -13.1646   -2.2870   58.7986 N.ar    1  ZINC000892249927   -0.4900
     28 C28       -12.6558   -2.0015   57.6162 C.ar    1  ZINC000892249927    0.1300
     29 C29       -11.2823   -3.2122   54.8704 C.3     1  ZINC000892249927   -0.1500
     30 H30        -9.5646    0.8709   51.8783 H       1  ZINC000892249927    0.0900
     31 H31        -8.8236    0.6916   53.4868 H       1  ZINC000892249927    0.0900
     32 H32        -6.7714   -0.2132   52.4604 H       1  ZINC000892249927    0.0700
     33 H33        -7.5123   -0.0978   50.8462 H       1  ZINC000892249927    0.0700
     34 H34        -7.6266    2.3162   50.9911 H       1  ZINC000892249927    0.0700
     35 H35        -7.1485    2.2894   52.7055 H       1  ZINC000892249927    0.0700
     36 H36        -5.9085    0.8968   49.4510 H       1  ZINC000892249927    0.1200
     37 H37        -3.5374    0.9756   48.7913 H       1  ZINC000892249927    0.1200
     38 H38        -0.7667    1.4868   50.8675 H       1  ZINC000892249927    0.1100
     39 H39        -0.2378    1.4171   48.3873 H       1  ZINC000892249927    0.1000
     40 H40        -1.9805    1.8823   48.0026 H       1  ZINC000892249927    0.1000
     41 H41        -1.6906    4.0419   49.3011 H       1  ZINC000892249927    0.1000
     42 H42         0.0521    3.5767   49.6858 H       1  ZINC000892249927    0.1000
     43 H43        -2.5756    2.8927   52.4776 H       1  ZINC000892249927    0.1200
     44 H44        -4.9471    2.8174   53.1357 H       1  ZINC000892249927    0.1200
     45 H45       -10.6607   -0.8560   54.0222 H       1  ZINC000892249927    0.4000
     46 H46       -11.4771   -2.8548   51.4495 H       1  ZINC000892249927    0.0800
     47 H47       -12.1469   -4.1704   52.4461 H       1  ZINC000892249927    0.0800
     48 H48       -12.7499   -1.1930   52.7524 H       1  ZINC000892249927    0.0500
     49 H49       -13.8523   -2.4241   52.0907 H       1  ZINC000892249927    0.1000
     50 H50       -14.4148   -4.1795   55.7332 H       1  ZINC000892249927    0.1300
     51 H51       -15.3265   -4.6777   57.9921 H       1  ZINC000892249927    0.1400
     52 H52       -14.4809   -3.4229   59.9348 H       1  ZINC000892249927    0.1600
     53 H53       -11.8987   -1.2359   57.5316 H       1  ZINC000892249927    0.1600
     54 H54       -11.5735   -4.2612   54.9255 H       1  ZINC000892249927    0.0900
     55 H55       -10.5159   -3.0063   55.6176 H       1  ZINC000892249927    0.0800
@<TRIPOS>BOND
     1     1     2    2
     2     2     3    1
     3     2    15   am
     4     3     4    1
     5     3    30    1
     6     3    31    1
     7     4     5    1
     8     4    32    1
     9     4    33    1
    10     5     6    1
    11     5    34    1
    12     5    35    1
    13     6    14   ar
    14     6     7   ar
    15     7     8   ar
    16     7    36    1
    17     8     9   ar
    18     8    37    1
    19     9    10    1
    20     9    13   ar
    21    10    12    1
    22    10    11    1
    23    10    38    1
    24    11    12    1
    25    11    39    1
    26    11    40    1
    27    12    41    1
    28    12    42    1
    29    13    14   ar
    30    13    43    1
    31    14    44    1
    32    15    16    1
    33    15    45    1
    34    16    17    1
    35    16    29    1
    36    16    18    1
    37    18    19    1
    38    18    46    1
    39    18    47    1
    40    19    20    1
    41    19    48    1
    42    19    49    1
    43    20    21    1
    44    21    22    1
    45    21    23    1
    46    21    29    1
    47    23    28   ar
    48    23    24   ar
    49    24    25   ar
    50    24    50    1
    51    25    26   ar
    52    25    51    1
    53    26    27   ar
    54    26    52    1
    55    27    28   ar
    56    28    53    1
    57    29    54    1
    58    29    55    1
@<TRIPOS>SUBSTRUCTURE
     1 ZINC000892249927        1 TEMP              0 ****  ****    0 ROOT


##########                                Name:    ZINC000410354665
##########                DOCK_Rotatable_Bonds:                   7
##########                         Heavy_Atoms:                  29
##########                    Molecular_Weight:             417.889
##########                DOCK_Rotatable_Bonds:                   7
##########                       Formal_Charge:        -3.72529e-08
##########                     HBond_Acceptors:                   7
##########                        HBond_Donors:                   1
##########                         Heavy_Atoms:                  29
##########                          Grid_Score:          -36.546486
##########                     Grid_vdw_energy:          -36.086819
##########                      Grid_es_energy:           -0.459666
##########           Internal_energy_repulsive:           21.968195

@<TRIPOS>MOLECULE
ZINC000410354665
 53 56 1 0 0
SMALL
USER_CHARGES


@<TRIPOS>ATOM
      1 C1        -10.7400   -3.2235   52.7746 C.3     1  ZINC000410354665    0.0200
      2 O2        -11.7357   -2.7715   51.8547 O.3     1  ZINC000410354665   -0.3000
      3 C3        -13.0095   -2.6753   52.3216 C.ar    1  ZINC000410354665    0.0900
      4 C4        -13.2897   -2.9981   53.6348 C.ar    1  ZINC000410354665   -0.1100
      5 C5        -14.5999   -2.8976   54.1115 C.ar    1  ZINC000410354665   -0.1400
      6 C6        -14.9048   -3.2408   55.5143 C.2     1  ZINC000410354665    0.5700
      7 O7        -15.9292   -2.8371   56.0301 O.2     1  ZINC000410354665   -0.5300
      8 N8        -14.0477   -4.0015   56.2235 N.am    1  ZINC000410354665   -0.7200
      9 C9        -14.3512   -4.3436   57.6153 C.3     1  ZINC000410354665    0.1700
     10 C10       -13.4430   -3.5665   58.5332 C.ar    1  ZINC000410354665   -0.1000
     11 C11       -13.9622   -2.9445   59.6530 C.ar    1  ZINC000410354665   -0.0900
     12 C12       -13.1320   -2.2285   60.4964 C.ar    1  ZINC000410354665   -0.0300
     13 Cl13      -13.7876   -1.4481   61.9017 Cl      1  ZINC000410354665   -0.0400
     14 C14       -11.7754   -2.1340   60.2203 C.ar    1  ZINC000410354665    0.0700
     15 O15       -10.9716   -1.4196   61.0551 O.3     1  ZINC000410354665   -0.2900
     16 C16        -9.5634   -1.6563   60.9513 C.3     1  ZINC000410354665    0.0200
     17 C17        -9.1836   -1.6524   59.4644 C.3     1  ZINC000410354665    0.0200
     18 O18        -9.9252   -2.6873   58.8096 O.3     1  ZINC000410354665   -0.3000
     19 C19       -11.2536   -2.7629   59.0964 C.ar    1  ZINC000410354665    0.0600
     20 C20       -12.0913   -3.4819   58.2568 C.ar    1  ZINC000410354665   -0.0900
     21 C21       -15.6196   -2.4713   53.2577 C.ar    1  ZINC000410354665   -0.0800
     22 C22       -15.3333   -2.1512   51.9480 C.ar    1  ZINC000410354665   -0.1900
     23 C23       -14.0314   -2.2453   51.4760 C.ar    1  ZINC000410354665    0.1400
     24 O24       -13.7544   -1.9288   50.1849 O.3     1  ZINC000410354665   -0.2900
     25 C25       -14.8513   -1.5119   49.3694 C.3     1  ZINC000410354665    0.0700
     26 C26       -15.2214   -0.0384   49.6706 C.3     1  ZINC000410354665   -0.1500
     27 C27       -15.9318    0.4086   48.3688 C.3     1  ZINC000410354665   -0.1200
     28 C28       -15.1320   -0.2823   47.2450 C.3     1  ZINC000410354665   -0.1200
     29 C29       -14.4450   -1.5034   47.8812 C.3     1  ZINC000410354665   -0.1200
     30 H30       -10.6905   -2.5394   53.6216 H       1  ZINC000410354665    0.0600
     31 H31       -10.9984   -4.2216   53.1282 H       1  ZINC000410354665    0.0600
     32 H32        -9.7715   -3.2543   52.2754 H       1  ZINC000410354665    0.1000
     33 H33       -12.4985   -3.3276   54.2919 H       1  ZINC000410354665    0.1500
     34 H34       -13.2299   -4.3226   55.8125 H       1  ZINC000410354665    0.4000
     35 H35       -15.3892   -4.0923   57.8333 H       1  ZINC000410354665    0.0800
     36 H36       -14.1959   -5.4115   57.7693 H       1  ZINC000410354665    0.0900
     37 H37       -15.0178   -3.0173   59.8694 H       1  ZINC000410354665    0.1500
     38 H38        -9.0189   -0.8685   61.4719 H       1  ZINC000410354665    0.1300
     39 H39        -9.3201   -2.6238   61.3903 H       1  ZINC000410354665    0.0800
     40 H40        -9.4324   -0.6869   59.0240 H       1  ZINC000410354665    0.0800
     41 H41        -8.1155   -1.8416   59.3575 H       1  ZINC000410354665    0.1300
     42 H42       -11.6876   -3.9732   57.3838 H       1  ZINC000410354665    0.1400
     43 H43       -16.6327   -2.3929   53.6237 H       1  ZINC000410354665    0.1300
     44 H44       -16.1230   -1.8221   51.2888 H       1  ZINC000410354665    0.1400
     45 H45       -15.7112   -2.1631   49.5263 H       1  ZINC000410354665    0.0800
     46 H46       -15.8997    0.0233   50.5216 H       1  ZINC000410354665    0.0700
     47 H47       -14.3253    0.5569   49.8456 H       1  ZINC000410354665    0.0800
     48 H48       -16.9677    0.0695   48.3638 H       1  ZINC000410354665    0.0700
     49 H49       -15.8836    1.4921   48.2607 H       1  ZINC000410354665    0.0700
     50 H50       -15.8058   -0.6044   46.4510 H       1  ZINC000410354665    0.0700
     51 H51       -14.3830    0.4014   46.8452 H       1  ZINC000410354665    0.0700
     52 H52       -13.3626   -1.4123   47.7901 H       1  ZINC000410354665    0.0800
     53 H53       -14.7853   -2.4181   47.3959 H       1  ZINC000410354665    0.0700
@<TRIPOS>BOND
     1     1     2    1
     2     1    30    1
     3     1    31    1
     4     1    32    1
     5     2     3    1
     6     3    23   ar
     7     3     4   ar
     8     4     5   ar
     9     4    33    1
    10     5     6    1
    11     5    21   ar
    12     6     7    2
    13     6     8   am
    14     8     9    1
    15     8    34    1
    16     9    10    1
    17     9    35    1
    18     9    36    1
    19    10    20   ar
    20    10    11   ar
    21    11    12   ar
    22    11    37    1
    23    12    13    1
    24    12    14   ar
    25    14    19   ar
    26    14    15    1
    27    15    16    1
    28    16    17    1
    29    16    38    1
    30    16    39    1
    31    17    18    1
    32    17    40    1
    33    17    41    1
    34    18    19    1
    35    19    20   ar
    36    20    42    1
    37    21    22   ar
    38    21    43    1
    39    22    23   ar
    40    22    44    1
    41    23    24    1
    42    24    25    1
    43    25    29    1
    44    25    26    1
    45    25    45    1
    46    26    27    1
    47    26    46    1
    48    26    47    1
    49    27    28    1
    50    27    48    1
    51    27    49    1
    52    28    29    1
    53    28    50    1
    54    28    51    1
    55    29    52    1
    56    29    53    1
@<TRIPOS>SUBSTRUCTURE
     1 ZINC000410354665        1 TEMP              0 ****  ****    0 ROOT


##########                                Name:    ZINC000466160459
##########                DOCK_Rotatable_Bonds:                   9
##########                         Heavy_Atoms:                  30
##########                    Molecular_Weight:             420.512
##########                DOCK_Rotatable_Bonds:                   9
##########                       Formal_Charge:          -0.0300007
##########                     HBond_Acceptors:                  10
##########                        HBond_Donors:                   2
##########                         Heavy_Atoms:                  30
##########                          Grid_Score:          -36.528622
##########                     Grid_vdw_energy:          -37.925144
##########                      Grid_es_energy:            1.396523
##########           Internal_energy_repulsive:          103.036430

@<TRIPOS>MOLECULE
ZINC000466160459
 62 64 1 0 0
SMALL
USER_CHARGES


@<TRIPOS>ATOM
      1 C1        -13.7529   -4.4038   54.9856 C.3     1  ZINC000466160459    0.0300
      2 O2        -13.5938   -4.4831   56.4035 O.3     1  ZINC000466160459   -0.3900
      3 C3        -14.3457   -3.5077   57.1282 C.3     1  ZINC000466160459    0.0500
      4 C4        -13.5593   -2.1964   57.1847 C.3     1  ZINC000466160459    0.1200
      5 N5        -12.1849   -2.4693   57.6120 N.am    1  ZINC000466160459   -0.7300
      6 C6        -11.9218   -2.7347   58.9069 C.2     1  ZINC000466160459    0.5200
      7 O7        -12.8233   -2.7490   59.7182 O.2     1  ZINC000466160459   -0.5200
      8 C8        -10.5077   -3.0136   59.3468 C.3     1  ZINC000466160459   -0.1300
      9 H9        -10.2721   -4.0631   59.1702 H       1  ZINC000466160459    0.1100
     10 C10       -10.3658   -2.7022   60.8385 C.3     1  ZINC000466160459   -0.1000
     11 C11       -10.7289   -1.2373   61.0922 C.3     1  ZINC000466160459   -0.1500
     12 C12        -9.7649   -0.3345   60.3160 C.3     1  ZINC000466160459    0.1600
     13 H13        -8.7559   -0.4522   60.7113 H       1  ZINC000466160459    0.0700
     14 C14       -10.2037    1.1244   60.4558 C.3     1  ZINC000466160459   -0.1400
     15 N15        -9.7878   -0.7253   58.8999 N.am    1  ZINC000466160459   -0.6200
     16 C16       -10.0300    0.1885   57.9392 C.2     1  ZINC000466160459    0.7100
     17 O17       -10.2322    1.3488   58.2411 O.2     1  ZINC000466160459   -0.5500
     18 N18       -10.0481   -0.1839   56.6441 N.am    1  ZINC000466160459   -0.7300
     19 C19       -10.3114    0.8094   55.5999 C.3     1  ZINC000466160459    0.1600
     20 H20       -10.2250    1.8104   56.0224 H       1  ZINC000466160459    0.1300
     21 C21       -11.7267    0.6088   55.0526 C.3     1  ZINC000466160459   -0.1400
     22 C22       -11.7478   -0.6814   54.2242 C.3     1  ZINC000466160459   -0.1400
     23 C23       -10.8928   -0.4743   52.9734 C.3     1  ZINC000466160459    0.1100
     24 N24        -9.5819    0.0519   53.3329 N.am    1  ZINC000466160459   -0.5200
     25 C25        -8.5441   -0.0764   52.3998 C.2     1  ZINC000466160459    0.2800
     26 N26        -7.7789    0.8945   51.9596 N.2     1  ZINC000466160459   -0.2600
     27 N27        -6.8697    0.3524   51.0422 N.pl3   1  ZINC000466160459   -0.3800
     28 C28        -5.8357    1.0930   50.3153 C.3     1  ZINC000466160459    0.1000
     29 C29        -7.1127   -0.9718   50.9455 C.2     1  ZINC000466160459    0.0700
     30 C30        -8.1375   -1.2673   51.7770 C.2     1  ZINC000466160459   -0.2900
     31 C31        -9.3095    0.6469   54.4930 C.2     1  ZINC000466160459    0.4900
     32 O32        -8.1910    1.0830   54.6657 O.2     1  ZINC000466160459   -0.4700
     33 C33        -9.5411   -2.1316   58.5502 C.3     1  ZINC000466160459    0.1200
     34 H34       -13.1505   -5.1769   54.5086 H       1  ZINC000466160459    0.0900
     35 H35       -14.8020   -4.5508   54.7290 H       1  ZINC000466160459    0.0400
     36 H36       -13.4277   -3.4234   54.6377 H       1  ZINC000466160459    0.0400
     37 H37       -15.2990   -3.3384   56.6278 H       1  ZINC000466160459    0.0600
     38 H38       -14.5259   -3.8672   58.1413 H       1  ZINC000466160459    0.0700
     39 H39       -13.5480   -1.7366   56.1965 H       1  ZINC000466160459    0.0800
     40 H40       -14.0330   -1.5190   57.8952 H       1  ZINC000466160459    0.0800
     41 H41       -11.4641   -2.4590   56.9630 H       1  ZINC000466160459    0.4000
     42 H42       -11.0349   -3.3463   61.4091 H       1  ZINC000466160459    0.0700
     43 H43        -9.3368   -2.8806   61.1504 H       1  ZINC000466160459    0.0700
     44 H44       -11.7497   -1.0523   60.7577 H       1  ZINC000466160459    0.1000
     45 H45       -10.6503   -1.0224   62.1579 H       1  ZINC000466160459    0.0700
     46 H46       -10.2915    1.3779   61.5123 H       1  ZINC000466160459    0.0400
     47 H47        -9.4636    1.7729   59.9869 H       1  ZINC000466160459    0.0800
     48 H48       -11.1686    1.2620   59.9677 H       1  ZINC000466160459    0.0600
     49 H49        -9.8867   -1.1096   56.4033 H       1  ZINC000466160459    0.3900
     50 H50       -12.4316    0.5254   55.8798 H       1  ZINC000466160459    0.0900
     51 H51       -11.9994    1.4546   54.4215 H       1  ZINC000466160459    0.0900
     52 H52       -11.3394   -1.5017   54.8146 H       1  ZINC000466160459    0.0700
     53 H53       -12.7724   -0.9122   53.9327 H       1  ZINC000466160459    0.1000
     54 H54       -10.7697   -1.4274   52.4592 H       1  ZINC000466160459    0.0900
     55 H55       -11.3929    0.2288   52.3075 H       1  ZINC000466160459    0.0800
     56 H56        -4.9150    1.0990   50.8987 H       1  ZINC000466160459    0.0700
     57 H57        -5.6533    0.6132   49.3536 H       1  ZINC000466160459    0.0900
     58 H58        -6.1693    2.1178   50.1525 H       1  ZINC000466160459    0.0900
     59 H59        -6.5804   -1.6718   50.3186 H       1  ZINC000466160459    0.1800
     60 H60        -8.5713   -2.2446   51.9292 H       1  ZINC000466160459    0.1500
     61 H61        -8.5138   -2.3957   58.8014 H       1  ZINC000466160459    0.0900
     62 H62        -9.7075   -2.2774   57.4829 H       1  ZINC000466160459    0.0700
@<TRIPOS>BOND
     1     1     2    1
     2     1    34    1
     3     1    35    1
     4     1    36    1
     5     2     3    1
     6     3     4    1
     7     3    37    1
     8     3    38    1
     9     4     5    1
    10     4    39    1
    11     4    40    1
    12     5     6   am
    13     5    41    1
    14     6     7    2
    15     6     8    1
    16     8     9    1
    17     8    33    1
    18     8    10    1
    19    10    11    1
    20    10    42    1
    21    10    43    1
    22    11    12    1
    23    11    44    1
    24    11    45    1
    25    12    13    1
    26    12    14    1
    27    12    15    1
    28    14    46    1
    29    14    47    1
    30    14    48    1
    31    15    16   am
    32    15    33    1
    33    16    17    2
    34    16    18   am
    35    18    19    1
    36    18    49    1
    37    19    20    1
    38    19    31    1
    39    19    21    1
    40    21    22    1
    41    21    50    1
    42    21    51    1
    43    22    23    1
    44    22    52    1
    45    22    53    1
    46    23    24    1
    47    23    54    1
    48    23    55    1
    49    24    25    1
    50    24    31   am
    51    25    30    1
    52    25    26    2
    53    26    27    1
    54    27    28    1
    55    27    29    1
    56    28    56    1
    57    28    57    1
    58    28    58    1
    59    29    30    2
    60    29    59    1
    61    30    60    1
    62    31    32    2
    63    33    61    1
    64    33    62    1
@<TRIPOS>SUBSTRUCTURE
     1 ZINC000466160459        1 TEMP              0 ****  ****    0 ROOT


##########                                Name:    ZINC000110375116
##########                DOCK_Rotatable_Bonds:                  10
##########                         Heavy_Atoms:                  27
##########                    Molecular_Weight:             396.511
##########                DOCK_Rotatable_Bonds:                  10
##########                       Formal_Charge:        -2.23517e-07
##########                     HBond_Acceptors:                   9
##########                        HBond_Donors:                   0
##########                         Heavy_Atoms:                  27
##########                          Grid_Score:          -36.465286
##########                     Grid_vdw_energy:          -35.326199
##########                      Grid_es_energy:           -1.139089
##########           Internal_energy_repulsive:           32.050564

@<TRIPOS>MOLECULE
ZINC000110375116
 55 56 1 0 0
SMALL
USER_CHARGES


@<TRIPOS>ATOM
      1 C1         -5.7340    2.4450   68.3257 C.3     1  ZINC000110375116   -0.1700
      2 C2         -7.2141    2.2589   68.6661 C.3     1  ZINC000110375116    0.1000
      3 N3         -8.0050    2.2795   67.4332 N.am    1  ZINC000110375116   -0.6200
      4 C4         -8.5341    3.5469   66.9234 C.3     1  ZINC000110375116    0.1100
      5 C5         -9.9229    3.7948   67.5156 C.3     1  ZINC000110375116   -0.1700
      6 C6         -8.2460    1.1324   66.7679 C.2     1  ZINC000110375116    0.5100
      7 O7         -7.8093    0.0829   67.1907 O.2     1  ZINC000110375116   -0.5300
      8 C8         -9.0582    1.1539   65.4986 C.3     1  ZINC000110375116   -0.1400
      9 C9         -8.6178    0.0029   64.5918 C.3     1  ZINC000110375116   -0.0900
     10 C10        -9.3868    0.0715   63.2709 C.3     1  ZINC000110375116   -0.1400
     11 C11        -8.9824   -1.0852   62.3936 C.2     1  ZINC000110375116    0.5200
     12 O12        -8.2819   -1.9689   62.8400 O.2     1  ZINC000110375116   -0.5300
     13 N13        -9.3991   -1.1375   61.1129 N.am    1  ZINC000110375116   -0.6200
     14 C14        -9.0160   -2.2616   60.2472 C.3     1  ZINC000110375116    0.0900
     15 C15       -10.2899   -2.8955   59.6746 C.3     1  ZINC000110375116    0.1000
     16 N16       -11.1358   -1.8298   59.1191 N.am    1  ZINC000110375116   -1.0000
     17 S17       -11.6486   -1.8948   57.5458 S.o2    1  ZINC000110375116    2.7000
     18 O18       -12.5561   -0.8147   57.3747 O.2     1  ZINC000110375116   -0.9400
     19 O19       -10.4833   -2.0643   56.7506 O.2     1  ZINC000110375116   -0.9500
     20 C20       -12.5931   -3.3713   57.3656 C.ar    1  ZINC000110375116   -0.7400
     21 C21       -13.7860   -3.5298   58.0538 C.ar    1  ZINC000110375116    0.0200
     22 C22       -14.4961   -4.7083   57.8810 C.ar    1  ZINC000110375116   -0.1900
     23 C23       -13.9947   -5.6786   57.0345 C.ar    1  ZINC000110375116    0.1500
     24 N24       -12.8559   -5.4935   56.3957 N.ar    1  ZINC000110375116   -0.4900
     25 C25       -12.1569   -4.3838   56.5318 C.ar    1  ZINC000110375116    0.2000
     26 C26       -11.5188   -0.7058   59.9848 C.3     1  ZINC000110375116    0.1000
     27 C27       -10.2496   -0.0747   60.5590 C.3     1  ZINC000110375116    0.1000
     28 H28        -5.1455    2.4297   69.2431 H       1  ZINC000110375116    0.0700
     29 H29        -5.4075    1.6371   67.6710 H       1  ZINC000110375116    0.0600
     30 H30        -5.5947    3.4008   67.8207 H       1  ZINC000110375116    0.0600
     31 H31        -7.3533    1.3031   69.1712 H       1  ZINC000110375116    0.0800
     32 H32        -7.5406    3.0669   69.3209 H       1  ZINC000110375116    0.0800
     33 H33        -7.8670    4.3603   67.2088 H       1  ZINC000110375116    0.0800
     34 H34        -8.6055    3.5000   65.8367 H       1  ZINC000110375116    0.0800
     35 H35       -10.3166    4.7378   67.1363 H       1  ZINC000110375116    0.0700
     36 H36       -10.5901    2.9815   67.2301 H       1  ZINC000110375116    0.0500
     37 H37        -9.8514    3.8418   68.6022 H       1  ZINC000110375116    0.0600
     38 H38       -10.1148    1.0413   65.7413 H       1  ZINC000110375116    0.0900
     39 H39        -8.9027    2.1020   64.9838 H       1  ZINC000110375116    0.0900
     40 H40        -7.5489    0.0844   64.3947 H       1  ZINC000110375116    0.0800
     41 H41        -8.8251   -0.9472   65.0841 H       1  ZINC000110375116    0.0800
     42 H42       -10.4570    0.0193   63.4704 H       1  ZINC000110375116    0.1000
     43 H43        -9.1567    1.0091   62.7648 H       1  ZINC000110375116    0.1000
     44 H44        -8.3898   -1.8988   59.4322 H       1  ZINC000110375116    0.0800
     45 H45        -8.4690   -3.0025   60.8302 H       1  ZINC000110375116    0.1000
     46 H46       -10.0253   -3.6007   58.8868 H       1  ZINC000110375116    0.1100
     47 H47       -10.8286   -3.4142   60.4675 H       1  ZINC000110375116    0.0800
     48 H48       -14.1533   -2.7541   58.7092 H       1  ZINC000110375116    0.1500
     49 H49       -15.4291   -4.8659   58.4016 H       1  ZINC000110375116    0.1500
     50 H50       -14.5415   -6.5995   56.8948 H       1  ZINC000110375116    0.1700
     51 H51       -11.2285   -4.2681   55.9923 H       1  ZINC000110375116    0.1700
     52 H52       -12.0659    0.0352   59.4018 H       1  ZINC000110375116    0.1100
     53 H53       -12.1451   -1.0686   60.7998 H       1  ZINC000110375116    0.0800
     54 H54       -10.5156    0.6302   61.3467 H       1  ZINC000110375116    0.1100
     55 H55        -9.7087    0.4442   59.7676 H       1  ZINC000110375116    0.0800
@<TRIPOS>BOND
     1     1     2    1
     2     1    28    1
     3     1    29    1
     4     1    30    1
     5     2     3    1
     6     2    31    1
     7     2    32    1
     8     3     4    1
     9     3     6   am
    10     4     5    1
    11     4    33    1
    12     4    34    1
    13     5    35    1
    14     5    36    1
    15     5    37    1
    16     6     7    2
    17     6     8    1
    18     8     9    1
    19     8    38    1
    20     8    39    1
    21     9    10    1
    22     9    40    1
    23     9    41    1
    24    10    11    1
    25    10    42    1
    26    10    43    1
    27    11    12    2
    28    11    13   am
    29    13    27    1
    30    13    14    1
    31    14    15    1
    32    14    44    1
    33    14    45    1
    34    15    16    1
    35    15    46    1
    36    15    47    1
    37    16    17   am
    38    16    26    1
    39    17    18    2
    40    17    19    2
    41    17    20    1
    42    20    25   ar
    43    20    21   ar
    44    21    22   ar
    45    21    48    1
    46    22    23   ar
    47    22    49    1
    48    23    24   ar
    49    23    50    1
    50    24    25   ar
    51    25    51    1
    52    26    27    1
    53    26    52    1
    54    26    53    1
    55    27    54    1
    56    27    55    1
@<TRIPOS>SUBSTRUCTURE
     1 ZINC000110375116        1 TEMP              0 ****  ****    0 ROOT


##########                                Name:    ZINC000893400114
##########                DOCK_Rotatable_Bonds:                   6
##########                         Heavy_Atoms:                  27
##########                    Molecular_Weight:             381.472
##########                DOCK_Rotatable_Bonds:                   6
##########                       Formal_Charge:           0.0300001
##########                     HBond_Acceptors:                   8
##########                        HBond_Donors:                   1
##########                         Heavy_Atoms:                  27
##########                          Grid_Score:          -36.438519
##########                     Grid_vdw_energy:          -35.612370
##########                      Grid_es_energy:           -0.826148
##########           Internal_energy_repulsive:           83.721977

@<TRIPOS>MOLECULE
ZINC000893400114
 58 61 1 0 0
SMALL
USER_CHARGES


@<TRIPOS>ATOM
      1 O1        -10.8445   -2.5214   55.9677 O.2     1  ZINC000893400114   -0.5600
      2 C2        -11.3035   -3.4061   56.6643 C.2     1  ZINC000893400114    0.7100
      3 N3        -10.8708   -3.5589   57.9315 N.am    1  ZINC000893400114   -0.7300
      4 C4         -9.8433   -2.6629   58.4678 C.3     1  ZINC000893400114    0.1400
      5 H5         -9.2215   -2.2717   57.6625 H       1  ZINC000893400114    0.1200
      6 C6         -8.9742   -3.4003   59.5129 C.3     1  ZINC000893400114   -0.1400
      7 C7         -9.6891   -3.0331   60.8323 C.3     1  ZINC000893400114    0.1000
      8 N8        -10.3746   -1.7631   60.5659 N.am    1  ZINC000893400114   -0.6200
      9 C9        -10.8789   -0.8621   61.6052 C.3     1  ZINC000893400114    0.1600
     10 C10       -10.2538    0.5250   61.4283 C.3     1  ZINC000893400114   -0.1700
     11 C11       -10.8455    1.4793   62.4689 C.3     1  ZINC000893400114    0.0700
     12 O12       -12.2664    1.5200   62.3225 O.3     1  ZINC000893400114   -0.3800
     13 C13       -12.9101    0.2602   62.5239 C.3     1  ZINC000893400114    0.0700
     14 C14       -12.4014   -0.7431   61.4855 C.3     1  ZINC000893400114   -0.1700
     15 C15       -10.4802   -1.5307   59.2429 C.2     1  ZINC000893400114    0.5100
     16 O16       -11.0086   -0.5573   58.7486 O.2     1  ZINC000893400114   -0.4900
     17 N17       -12.2488   -4.2304   56.1708 N.am    1  ZINC000893400114   -0.6300
     18 C18       -12.8233   -5.3044   56.9966 C.3     1  ZINC000893400114    0.0800
     19 C19       -14.3513   -5.2085   56.9198 C.3     1  ZINC000893400114    0.0500
     20 O20       -14.7527   -5.1786   55.5481 O.3     1  ZINC000893400114   -0.3800
     21 C21       -14.2695   -4.0462   54.8214 C.3     1  ZINC000893400114    0.0600
     22 C22       -12.7413   -4.0791   54.7925 C.3     1  ZINC000893400114    0.1400
     23 H23       -12.4036   -4.9244   54.1930 H       1  ZINC000893400114    0.0800
     24 C24       -12.2092   -2.7762   54.1922 C.3     1  ZINC000893400114   -0.1200
     25 C25       -12.8862   -2.5221   52.8438 C.3     1  ZINC000893400114    0.0700
     26 H26       -13.1180   -3.4718   52.3618 H       1  ZINC000893400114    0.0800
     27 C27       -11.9536   -1.6891   51.9383 C.3     1  ZINC000893400114   -0.1500
     28 C28       -12.9497   -0.7263   51.2363 C.3     1  ZINC000893400114   -0.1600
     29 C29       -13.9875   -0.5026   52.3650 C.3     1  ZINC000893400114    0.0500
     30 O30       -14.0892   -1.7695   53.0384 O.3     1  ZINC000893400114   -0.3800
     31 H31       -11.2399   -4.2621   58.4885 H       1  ZINC000893400114    0.4000
     32 H32        -8.9929   -4.4773   59.3458 H       1  ZINC000893400114    0.1000
     33 H33        -7.9515   -3.0236   59.5055 H       1  ZINC000893400114    0.1000
     34 H34       -10.4128   -3.8042   61.0964 H       1  ZINC000893400114    0.0700
     35 H35        -8.9609   -2.9079   61.6336 H       1  ZINC000893400114    0.0800
     36 H36       -10.6202   -1.2575   62.5875 H       1  ZINC000893400114    0.0900
     37 H37        -9.1747    0.4586   61.5670 H       1  ZINC000893400114    0.0800
     38 H38       -10.4711    0.8975   60.4273 H       1  ZINC000893400114    0.0900
     39 H39       -10.5932    1.1279   63.4694 H       1  ZINC000893400114    0.0500
     40 H40       -10.4360    2.4785   62.3203 H       1  ZINC000893400114    0.1000
     41 H41       -12.6848   -0.1071   63.5251 H       1  ZINC000893400114    0.0500
     42 H42       -13.9879    0.3811   62.4149 H       1  ZINC000893400114    0.1000
     43 H43       -12.6621   -0.3961   60.4856 H       1  ZINC000893400114    0.0900
     44 H44       -12.8581   -1.7163   61.6649 H       1  ZINC000893400114    0.0700
     45 H45       -12.4967   -6.2730   56.6182 H       1  ZINC000893400114    0.0800
     46 H46       -12.4995   -5.1855   58.0306 H       1  ZINC000893400114    0.0800
     47 H47       -14.7955   -6.0746   57.4104 H       1  ZINC000893400114    0.1100
     48 H48       -14.6843   -4.2972   57.4166 H       1  ZINC000893400114    0.0500
     49 H49       -14.6548   -4.0762   53.8022 H       1  ZINC000893400114    0.1300
     50 H50       -14.6022   -3.1307   55.3104 H       1  ZINC000893400114    0.0500
     51 H51       -12.4253   -1.9495   54.8688 H       1  ZINC000893400114    0.0800
     52 H52       -11.1316   -2.8559   54.0484 H       1  ZINC000893400114    0.1100
     53 H53       -11.2304   -1.1323   52.5341 H       1  ZINC000893400114    0.0800
     54 H54       -11.4504   -2.3252   51.2100 H       1  ZINC000893400114    0.0800
     55 H55       -12.4630    0.2088   50.9592 H       1  ZINC000893400114    0.0800
     56 H56       -13.4089   -1.2002   50.3687 H       1  ZINC000893400114    0.0800
     57 H57       -13.6372    0.2659   53.0541 H       1  ZINC000893400114    0.0600
     58 H58       -14.9519   -0.2214   51.9420 H       1  ZINC000893400114    0.0800
@<TRIPOS>BOND
     1     1     2    2
     2     2     3   am
     3     2    17   am
     4     3     4    1
     5     3    31    1
     6     4     5    1
     7     4    15    1
     8     4     6    1
     9     6     7    1
    10     6    32    1
    11     6    33    1
    12     7     8    1
    13     7    34    1
    14     7    35    1
    15     8     9    1
    16     8    15   am
    17     9    14    1
    18     9    10    1
    19     9    36    1
    20    10    11    1
    21    10    37    1
    22    10    38    1
    23    11    12    1
    24    11    39    1
    25    11    40    1
    26    12    13    1
    27    13    14    1
    28    13    41    1
    29    13    42    1
    30    14    43    1
    31    14    44    1
    32    15    16    2
    33    17    22    1
    34    17    18    1
    35    18    19    1
    36    18    45    1
    37    18    46    1
    38    19    20    1
    39    19    47    1
    40    19    48    1
    41    20    21    1
    42    21    22    1
    43    21    49    1
    44    21    50    1
    45    22    23    1
    46    22    24    1
    47    24    25    1
    48    24    51    1
    49    24    52    1
    50    25    26    1
    51    25    30    1
    52    25    27    1
    53    27    28    1
    54    27    53    1
    55    27    54    1
    56    28    29    1
    57    28    55    1
    58    28    56    1
    59    29    30    1
    60    29    57    1
    61    29    58    1
@<TRIPOS>SUBSTRUCTURE
     1 ZINC000893400114        1 TEMP              0 ****  ****    0 ROOT


##########                                Name:    ZINC001362587626
##########                DOCK_Rotatable_Bonds:                   9
##########                         Heavy_Atoms:                  25
##########                    Molecular_Weight:             346.346
##########                DOCK_Rotatable_Bonds:                   9
##########                       Formal_Charge:        -4.02331e-07
##########                     HBond_Acceptors:                  10
##########                        HBond_Donors:                   2
##########                         Heavy_Atoms:                  25
##########                          Grid_Score:          -36.388824
##########                     Grid_vdw_energy:          -29.383572
##########                      Grid_es_energy:           -7.005253
##########           Internal_energy_repulsive:            5.919834

@<TRIPOS>MOLECULE
ZINC001362587626
 43 45 1 0 0
SMALL
USER_CHARGES


@<TRIPOS>ATOM
      1 C1        -10.6694    2.9136   64.2911 C.3     1  ZINC001362587626   -0.1600
      2 C2         -9.9254    1.6300   64.6652 C.3     1  ZINC001362587626    0.1300
      3 H3        -10.3256    1.2375   65.6000 H       1  ZINC001362587626    0.1200
      4 N4         -8.4992    1.9224   64.8291 N.am    1  ZINC001362587626   -0.7100
      5 C5         -7.7173    1.0859   65.5399 C.2     1  ZINC001362587626    0.5100
      6 O6         -8.1939    0.0903   66.0426 O.2     1  ZINC001362587626   -0.5000
      7 C7         -6.2505    1.3876   65.7100 C.3     1  ZINC001362587626    0.1000
      8 N8         -6.0538    2.1869   66.9220 N.pl3   1  ZINC001362587626   -0.3100
      9 C9         -6.0719    3.5301   67.0053 C.2     1  ZINC001362587626    0.1600
     10 N10        -5.8551    3.8321   68.2622 N.2     1  ZINC001362587626   -0.3000
     11 N11        -5.7114    2.7317   68.9167 N.2     1  ZINC001362587626   -0.0700
     12 N12        -5.8364    1.7354   68.1108 N.2     1  ZINC001362587626   -0.0700
     13 C13       -10.1064    0.6080   63.5728 C.2     1  ZINC001362587626    0.5100
     14 O14       -11.0738   -0.1238   63.5811 O.2     1  ZINC001362587626   -0.5200
     15 N15        -9.1934    0.5069   62.5865 N.am    1  ZINC001362587626   -0.6600
     16 C16        -9.3617   -0.4434   61.5708 C.ar    1  ZINC001362587626    0.1000
     17 C17       -10.0031   -0.0922   60.3905 C.ar    1  ZINC001362587626   -0.1000
     18 C18       -10.1683   -1.0291   59.3897 C.ar    1  ZINC001362587626   -0.1900
     19 C19        -9.6939   -2.3211   59.5635 C.ar    1  ZINC001362587626    0.1200
     20 O20        -9.8573   -3.2433   58.5777 O.3     1  ZINC001362587626   -0.2800
     21 C21       -11.1494   -3.3244   57.9728 C.3     1  ZINC001362587626    0.0100
     22 C22       -11.2329   -2.6478   56.5915 C.3     1  ZINC001362587626    0.0200
     23 O23       -10.8948   -3.9452   56.0612 O.3     1  ZINC001362587626   -0.3700
     24 C24       -11.4008   -4.6428   57.2170 C.3     1  ZINC001362587626    0.0400
     25 C25        -9.0526   -2.6726   60.7423 C.ar    1  ZINC001362587626   -0.1300
     26 C26        -8.8821   -1.7351   61.7418 C.ar    1  ZINC001362587626   -0.0800
     27 H27       -10.2692    3.3062   63.3563 H       1  ZINC001362587626    0.0700
     28 H28       -11.7305    2.6961   64.1691 H       1  ZINC001362587626    0.0800
     29 H29       -10.5386    3.6529   65.0812 H       1  ZINC001362587626    0.0800
     30 H30        -8.1178    2.7179   64.4261 H       1  ZINC001362587626    0.4100
     31 H31        -5.6952    0.4537   65.7966 H       1  ZINC001362587626    0.1500
     32 H32        -5.8916    1.9451   64.8449 H       1  ZINC001362587626    0.1400
     33 H33        -6.2331    4.2245   66.1939 H       1  ZINC001362587626    0.2400
     34 H34        -8.4199    1.0921   62.5798 H       1  ZINC001362587626    0.4100
     35 H35       -10.3731    0.9134   60.2554 H       1  ZINC001362587626    0.1300
     36 H36       -10.6672   -0.7562   58.4715 H       1  ZINC001362587626    0.1400
     37 H37       -11.9555   -3.0452   58.6512 H       1  ZINC001362587626    0.0900
     38 H38       -12.2347   -2.3102   56.3257 H       1  ZINC001362587626    0.1000
     39 H39       -10.4674   -1.8900   56.4246 H       1  ZINC001362587626    0.1000
     40 H40       -10.7684   -5.4673   57.5462 H       1  ZINC001362587626    0.1000
     41 H41       -12.4537   -4.9144   57.1422 H       1  ZINC001362587626    0.1000
     42 H42        -8.6835   -3.6786   60.8769 H       1  ZINC001362587626    0.1400
     43 H43        -8.3823   -2.0087   62.6593 H       1  ZINC001362587626    0.1500
@<TRIPOS>BOND
     1     1     2    1
     2     1    27    1
     3     1    28    1
     4     1    29    1
     5     2     3    1
     6     2     4    1
     7     2    13    1
     8     4     5   am
     9     4    30    1
    10     5     6    2
    11     5     7    1
    12     7     8    1
    13     7    31    1
    14     7    32    1
    15     8    12    1
    16     8     9    1
    17     9    10    2
    18     9    33    1
    19    10    11    1
    20    11    12    2
    21    13    14    2
    22    13    15   am
    23    15    16    1
    24    15    34    1
    25    16    26   ar
    26    16    17   ar
    27    17    18   ar
    28    17    35    1
    29    18    19   ar
    30    18    36    1
    31    19    20    1
    32    19    25   ar
    33    20    21    1
    34    21    24    1
    35    21    22    1
    36    21    37    1
    37    22    23    1
    38    22    38    1
    39    22    39    1
    40    23    24    1
    41    24    40    1
    42    24    41    1
    43    25    26   ar
    44    25    42    1
    45    26    43    1
@<TRIPOS>SUBSTRUCTURE
     1 ZINC001362587626        1 TEMP              0 ****  ****    0 ROOT


##########                                Name:    ZINC000503413572
##########                DOCK_Rotatable_Bonds:                   7
##########                         Heavy_Atoms:                  26
##########                    Molecular_Weight:             355.375
##########                DOCK_Rotatable_Bonds:                   7
##########                       Formal_Charge:        -1.71363e-07
##########                     HBond_Acceptors:                   9
##########                        HBond_Donors:                   1
##########                         Heavy_Atoms:                  26
##########                          Grid_Score:          -36.373695
##########                     Grid_vdw_energy:          -34.634151
##########                      Grid_es_energy:           -1.739545
##########           Internal_energy_repulsive:            8.586476

@<TRIPOS>MOLECULE
ZINC000503413572
 44 47 1 0 0
SMALL
USER_CHARGES


@<TRIPOS>ATOM
      1 C1        -10.8177   -3.5982   53.0495 C.3     1  ZINC000503413572   -0.1200
      2 C2        -12.1681   -2.9294   53.0457 C.ar    1  ZINC000503413572   -0.0200
      3 C3        -12.6009   -2.2531   51.9223 C.ar    1  ZINC000503413572   -0.1400
      4 C4        -13.8422   -1.6387   51.9181 C.ar    1  ZINC000503413572    0.1300
      5 F5        -14.2642   -0.9778   50.8180 F       1  ZINC000503413572   -0.1300
      6 C6        -14.6515   -1.7014   53.0400 C.ar    1  ZINC000503413572   -0.1400
      7 C7        -14.2218   -2.3770   54.1655 C.ar    1  ZINC000503413572   -0.0700
      8 C8        -12.9803   -2.9978   54.1697 C.ar    1  ZINC000503413572    0.1000
      9 N9        -12.5426   -3.6848   55.3117 N.pl3   1  ZINC000503413572   -0.3100
     10 C10       -11.6881   -3.2243   56.2506 C.2     1  ZINC000503413572    0.1100
     11 C11       -11.5452   -4.2188   57.1764 C.2     1  ZINC000503413572   -0.1000
     12 C12       -10.7018   -4.1572   58.3850 C.2     1  ZINC000503413572    0.6100
     13 O13       -10.2550   -5.1799   58.8674 O.2     1  ZINC000503413572   -0.5300
     14 N14       -10.4265   -2.9671   58.9546 N.am    1  ZINC000503413572   -0.7200
     15 C15        -9.5875   -2.9056   60.1540 C.3     1  ZINC000503413572    0.1100
     16 C16        -9.4703   -1.4533   60.6206 C.3     1  ZINC000503413572    0.1000
     17 N17       -10.6511   -1.0977   61.4114 N.pl3   1  ZINC000503413572   -0.4700
     18 C18       -11.8889   -1.6409   61.3173 C.2     1  ZINC000503413572    0.1500
     19 N19       -12.6438   -1.0416   62.1975 N.2     1  ZINC000503413572   -0.2900
     20 N20       -11.9538   -0.1612   62.8319 N.2     1  ZINC000503413572   -0.2900
     21 C21       -10.7258   -0.1628   62.3893 C.2     1  ZINC000503413572    0.2100
     22 C22        -9.6021    0.7188   62.8699 C.3     1  ZINC000503413572   -0.1000
     23 C23        -9.7079    1.2896   64.2854 C.3     1  ZINC000503413572   -0.1500
     24 C24        -8.7042    0.1752   63.9830 C.3     1  ZINC000503413572   -0.1600
     25 N25       -12.3031   -5.2630   56.7998 N.2     1  ZINC000503413572   -0.2000
     26 N26       -12.9126   -4.9799   55.7015 N.2     1  ZINC000503413572   -0.0400
     27 H27       -10.9315   -4.6484   52.7808 H       1  ZINC000503413572    0.0900
     28 H28       -10.1667   -3.1065   52.3265 H       1  ZINC000503413572    0.0800
     29 H29       -10.3780   -3.5233   54.0441 H       1  ZINC000503413572    0.0700
     30 H30       -11.9709   -2.2028   51.0466 H       1  ZINC000503413572    0.1500
     31 H31       -15.6189   -1.2214   53.0351 H       1  ZINC000503413572    0.1500
     32 H32       -14.8531   -2.4254   55.0405 H       1  ZINC000503413572    0.1500
     33 H33       -11.2094   -2.2563   56.2663 H       1  ZINC000503413572    0.2100
     34 H34       -10.7840   -2.1512   58.5705 H       1  ZINC000503413572    0.4100
     35 H35       -10.0386   -3.5059   60.9441 H       1  ZINC000503413572    0.0800
     36 H36        -8.5955   -3.2945   59.9238 H       1  ZINC000503413572    0.0800
     37 H37        -8.5754   -1.3392   61.2324 H       1  ZINC000503413572    0.1100
     38 H38        -9.4032   -0.7971   59.7527 H       1  ZINC000503413572    0.1100
     39 H39       -12.1944   -2.4240   60.6393 H       1  ZINC000503413572    0.2200
     40 H40        -9.1367    1.3443   62.1081 H       1  ZINC000503413572    0.1200
     41 H41        -9.3121    2.2909   64.4552 H       1  ZINC000503413572    0.1100
     42 H42       -10.5903    1.0275   64.8692 H       1  ZINC000503413572    0.1100
     43 H43        -8.9262   -0.8202   64.3678 H       1  ZINC000503413572    0.1000
     44 H44        -7.6481    0.4433   63.9537 H       1  ZINC000503413572    0.1100
@<TRIPOS>BOND
     1     1     2    1
     2     1    27    1
     3     1    28    1
     4     1    29    1
     5     2     8   ar
     6     2     3   ar
     7     3     4   ar
     8     3    30    1
     9     4     5    1
    10     4     6   ar
    11     6     7   ar
    12     6    31    1
    13     7     8   ar
    14     7    32    1
    15     8     9    1
    16     9    26    1
    17     9    10    1
    18    10    11    2
    19    10    33    1
    20    11    12    1
    21    11    25    1
    22    12    13    2
    23    12    14   am
    24    14    15    1
    25    14    34    1
    26    15    16    1
    27    15    35    1
    28    15    36    1
    29    16    17    1
    30    16    37    1
    31    16    38    1
    32    17    21    1
    33    17    18    1
    34    18    19    2
    35    18    39    1
    36    19    20    1
    37    20    21    2
    38    21    22    1
    39    22    24    1
    40    22    23    1
    41    22    40    1
    42    23    24    1
    43    23    41    1
    44    23    42    1
    45    24    43    1
    46    24    44    1
    47    25    26    2
@<TRIPOS>SUBSTRUCTURE
     1 ZINC000503413572        1 TEMP              0 ****  ****    0 ROOT


##########                                Name:    ZINC000467104849
##########                DOCK_Rotatable_Bonds:                   6
##########                         Heavy_Atoms:                  29
##########                    Molecular_Weight:             421.896
##########                DOCK_Rotatable_Bonds:                   6
##########                       Formal_Charge:           0.0200002
##########                     HBond_Acceptors:                   7
##########                        HBond_Donors:                   0
##########                         Heavy_Atoms:                  29
##########                          Grid_Score:          -36.369465
##########                     Grid_vdw_energy:          -35.932682
##########                      Grid_es_energy:           -0.436784
##########           Internal_energy_repulsive:           65.255882

@<TRIPOS>MOLECULE
ZINC000467104849
 54 56 1 0 0
SMALL
USER_CHARGES


@<TRIPOS>ATOM
      1 C1         -9.2014   -3.1644   60.3330 C.3     1  ZINC000467104849    0.0200
      2 O2         -9.4618   -1.9668   59.5980 O.3     1  ZINC000467104849   -0.3000
      3 C3        -10.0364   -2.1067   58.3733 C.ar    1  ZINC000467104849    0.1000
      4 C4        -10.2668   -3.3704   57.8549 C.ar    1  ZINC000467104849   -0.1700
      5 C5        -10.8516   -3.5109   56.6098 C.ar    1  ZINC000467104849   -0.1200
      6 C6        -11.2068   -2.3925   55.8796 C.ar    1  ZINC000467104849   -0.0800
      7 C7        -11.8433   -2.5512   54.5228 C.3     1  ZINC000467104849   -0.0400
      8 C8        -12.7807   -1.3714   54.2580 C.3     1  ZINC000467104849   -0.1300
      9 C9        -10.7537   -2.5878   53.4494 C.3     1  ZINC000467104849   -0.1600
     10 C10       -12.6298   -3.8361   54.4842 C.2     1  ZINC000467104849    0.5300
     11 O11       -12.3897   -4.6689   53.6359 O.2     1  ZINC000467104849   -0.5300
     12 N12       -13.6002   -4.0598   55.3925 N.am    1  ZINC000467104849   -0.6100
     13 C13       -14.3814   -5.3066   55.3748 C.3     1  ZINC000467104849    0.0600
     14 C14       -14.3688   -5.9052   56.7860 C.3     1  ZINC000467104849    0.0500
     15 O15       -14.7839   -4.9091   57.7236 O.3     1  ZINC000467104849   -0.3700
     16 C16       -13.9195   -3.7725   57.7913 C.3     1  ZINC000467104849    0.1300
     17 H17       -12.9092   -4.0977   58.0400 H       1  ZINC000467104849    0.0800
     18 C18       -14.4179   -2.8233   58.8503 C.ar    1  ZINC000467104849   -0.0900
     19 C19       -15.7484   -2.4496   58.8716 C.ar    1  ZINC000467104849   -0.0500
     20 C20       -16.2075   -1.5789   59.8423 C.ar    1  ZINC000467104849   -0.1400
     21 C21       -15.3344   -1.0813   60.7940 C.ar    1  ZINC000467104849    0.1200
     22 F22       -15.7821   -0.2307   61.7433 F       1  ZINC000467104849   -0.1200
     23 C23       -14.0005   -1.4567   60.7723 C.ar    1  ZINC000467104849   -0.0800
     24 Cl24      -12.9034   -0.8339   61.9649 Cl      1  ZINC000467104849   -0.0400
     25 C25       -13.5451   -2.3315   59.8030 C.ar    1  ZINC000467104849   -0.0700
     26 C26       -13.9054   -3.0671   56.4350 C.3     1  ZINC000467104849    0.0900
     27 C27       -10.9800   -1.1280   56.3914 C.ar    1  ZINC000467104849   -0.1600
     28 C28       -10.3994   -0.9803   57.6405 C.ar    1  ZINC000467104849    0.1100
     29 O29       -10.1756    0.2625   58.1453 O.3     1  ZINC000467104849   -0.3000
     30 C30       -10.5431    1.3724   57.3237 C.3     1  ZINC000467104849    0.0200
     31 H31        -8.7433   -2.9114   61.2892 H       1  ZINC000467104849    0.1000
     32 H32       -10.1377   -3.6944   60.5076 H       1  ZINC000467104849    0.0600
     33 H33        -8.5246   -3.8007   59.7629 H       1  ZINC000467104849    0.0600
     34 H34        -9.9894   -4.2460   58.4231 H       1  ZINC000467104849    0.1400
     35 H35       -11.0307   -4.4967   56.2067 H       1  ZINC000467104849    0.1300
     36 H36       -12.1989   -0.4515   54.1981 H       1  ZINC000467104849    0.0700
     37 H37       -13.3077   -1.5299   53.3171 H       1  ZINC000467104849    0.0700
     38 H38       -13.5033   -1.2920   55.0703 H       1  ZINC000467104849    0.0700
     39 H39       -10.1394   -3.4779   53.5854 H       1  ZINC000467104849    0.0700
     40 H40       -11.2163   -2.6129   52.4628 H       1  ZINC000467104849    0.0700
     41 H41       -10.1291   -1.6986   53.5353 H       1  ZINC000467104849    0.0700
     42 H42       -15.4077   -5.0926   55.0761 H       1  ZINC000467104849    0.0800
     43 H43       -13.9336   -6.0106   54.6734 H       1  ZINC000467104849    0.1100
     44 H44       -15.0530   -6.7526   56.8281 H       1  ZINC000467104849    0.1100
     45 H45       -13.3602   -6.2382   57.0312 H       1  ZINC000467104849    0.0600
     46 H46       -16.4299   -2.8378   58.1291 H       1  ZINC000467104849    0.1500
     47 H47       -17.2471   -1.2869   59.8579 H       1  ZINC000467104849    0.1500
     48 H48       -12.5058   -2.6248   59.7858 H       1  ZINC000467104849    0.1500
     49 H49       -13.1443   -2.2867   56.4350 H       1  ZINC000467104849    0.1100
     50 H50       -14.8832   -2.6269   56.2399 H       1  ZINC000467104849    0.0800
     51 H51       -11.2586   -0.2557   55.8189 H       1  ZINC000467104849    0.1400
     52 H52        -9.9859    1.3316   56.3877 H       1  ZINC000467104849    0.0600
     53 H53       -11.6116    1.3300   57.1125 H       1  ZINC000467104849    0.0600
     54 H54       -10.3121    2.3018   57.8440 H       1  ZINC000467104849    0.1000
@<TRIPOS>BOND
     1     1     2    1
     2     1    31    1
     3     1    32    1
     4     1    33    1
     5     2     3    1
     6     3    28   ar
     7     3     4   ar
     8     4     5   ar
     9     4    34    1
    10     5     6   ar
    11     5    35    1
    12     6     7    1
    13     6    27   ar
    14     7     8    1
    15     7     9    1
    16     7    10    1
    17     8    36    1
    18     8    37    1
    19     8    38    1
    20     9    39    1
    21     9    40    1
    22     9    41    1
    23    10    11    2
    24    10    12   am
    25    12    26    1
    26    12    13    1
    27    13    14    1
    28    13    42    1
    29    13    43    1
    30    14    15    1
    31    14    44    1
    32    14    45    1
    33    15    16    1
    34    16    17    1
    35    16    18    1
    36    16    26    1
    37    18    25   ar
    38    18    19   ar
    39    19    20   ar
    40    19    46    1
    41    20    21   ar
    42    20    47    1
    43    21    22    1
    44    21    23   ar
    45    23    24    1
    46    23    25   ar
    47    25    48    1
    48    26    49    1
    49    26    50    1
    50    27    28   ar
    51    27    51    1
    52    28    29    1
    53    29    30    1
    54    30    52    1
    55    30    53    1
    56    30    54    1
@<TRIPOS>SUBSTRUCTURE
     1 ZINC000467104849        1 TEMP              0 ****  ****    0 ROOT


##########                                Name:    ZINC000744839011
##########                DOCK_Rotatable_Bonds:                  10
##########                         Heavy_Atoms:                  24
##########                    Molecular_Weight:              378.83
##########                DOCK_Rotatable_Bonds:                  10
##########                       Formal_Charge:           0.0300002
##########                     HBond_Acceptors:                   9
##########                        HBond_Donors:                   0
##########                         Heavy_Atoms:                  24
##########                          Grid_Score:          -36.352394
##########                     Grid_vdw_energy:          -33.489544
##########                      Grid_es_energy:           -2.862851
##########           Internal_energy_repulsive:           11.795834

@<TRIPOS>MOLECULE
ZINC000744839011
 43 43 1 0 0
SMALL
USER_CHARGES


@<TRIPOS>ATOM
      1 C1        -13.7261   -4.6028   55.0897 C.3     1  ZINC000744839011    0.0400
      2 O2        -13.0907   -3.8199   56.1346 O.3     1  ZINC000744839011   -0.3600
      3 C3        -11.8257   -3.4133   55.9108 C.2     1  ZINC000744839011    0.5100
      4 O4        -11.2720   -3.6970   54.8671 O.2     1  ZINC000744839011   -0.5000
      5 C5        -11.1132   -2.6241   56.9326 C.ar    1  ZINC000744839011   -0.1600
      6 C6        -11.1185   -1.2279   56.8692 C.ar    1  ZINC000744839011   -0.0100
      7 C7        -10.4524   -0.4941   57.8255 C.ar    1  ZINC000744839011   -0.2100
      8 C8         -9.7754   -1.1396   58.8530 C.ar    1  ZINC000744839011    0.1800
      9 O9         -9.1202   -0.4125   59.7934 O.3     1  ZINC000744839011   -0.2900
     10 C10        -9.9076    0.1434   60.8484 C.3     1  ZINC000744839011    0.0500
     11 C11        -9.7603   -0.7192   62.1035 C.3     1  ZINC000744839011    0.0600
     12 O12       -10.4361   -0.0753   63.2156 O.3     1  ZINC000744839011   -0.3400
     13 C13        -9.6965    0.7294   63.9948 C.2     1  ZINC000744839011    0.5000
     14 O14       -10.0780    1.8489   64.2415 O.2     1  ZINC000744839011   -0.4900
     15 C15        -8.3903    0.2364   64.5620 C.3     1  ZINC000744839011   -0.6400
     16 S16        -8.4123    0.4073   66.3678 S.o2    1  ZINC000744839011    2.4400
     17 O17        -9.6667    0.9503   66.7560 O.2     1  ZINC000744839011   -0.9100
     18 O18        -7.9781   -0.8171   66.9437 O.2     1  ZINC000744839011   -0.9100
     19 C19        -7.1302    1.6611   66.6413 C.3     1  ZINC000744839011   -0.5700
     20 C20        -7.7148    3.0521   66.3875 C.3     1  ZINC000744839011   -0.1500
     21 C21        -6.6307    1.5733   68.0848 C.3     1  ZINC000744839011   -0.1500
     22 C22        -9.7677   -2.5292   58.9208 C.ar    1  ZINC000744839011   -0.0800
     23 Cl23       -8.9206   -3.3299   60.2074 Cl      1  ZINC000744839011   -0.0400
     24 C24       -10.4356   -3.2703   57.9709 C.ar    1  ZINC000744839011   -0.0100
     25 H25       -13.7646   -4.0185   54.1704 H       1  ZINC000744839011    0.0700
     26 H26       -13.1519   -5.5133   54.9178 H       1  ZINC000744839011    0.0700
     27 H27       -14.7387   -4.8645   55.3967 H       1  ZINC000744839011    0.1100
     28 H28       -11.6439   -0.7250   56.0707 H       1  ZINC000744839011    0.1500
     29 H29       -10.4558    0.5848   57.7765 H       1  ZINC000744839011    0.1500
     30 H30        -9.5662    1.1564   61.0616 H       1  ZINC000744839011    0.0900
     31 H31       -10.9544    0.1689   60.5459 H       1  ZINC000744839011    0.1000
     32 H32       -10.2052   -1.6983   61.9257 H       1  ZINC000744839011    0.1100
     33 H33        -8.7030   -0.8382   62.3405 H       1  ZINC000744839011    0.0900
     34 H34        -8.2520   -0.8121   64.2979 H       1  ZINC000744839011    0.1700
     35 H35        -7.5703    0.8255   64.1513 H       1  ZINC000744839011    0.1700
     36 H36        -6.2991    1.4861   65.9579 H       1  ZINC000744839011    0.1400
     37 H37        -6.9445    3.8054   66.5518 H       1  ZINC000744839011    0.0900
     38 H38        -8.0707    3.1146   65.3591 H       1  ZINC000744839011    0.0700
     39 H39        -8.5459    3.2271   67.0708 H       1  ZINC000744839011    0.0800
     40 H40        -6.2143    0.5825   68.2655 H       1  ZINC000744839011    0.0800
     41 H41        -5.8604    2.3268   68.2491 H       1  ZINC000744839011    0.0900
     42 H42        -7.4617    1.7484   68.7680 H       1  ZINC000744839011    0.0800
     43 H43       -10.4294   -4.3490   58.0238 H       1  ZINC000744839011    0.1600
@<TRIPOS>BOND
     1     1     2    1
     2     1    25    1
     3     1    26    1
     4     1    27    1
     5     2     3    1
     6     3     4    2
     7     3     5    1
     8     5    24   ar
     9     5     6   ar
    10     6     7   ar
    11     6    28    1
    12     7     8   ar
    13     7    29    1
    14     8     9    1
    15     8    22   ar
    16     9    10    1
    17    10    11    1
    18    10    30    1
    19    10    31    1
    20    11    12    1
    21    11    32    1
    22    11    33    1
    23    12    13    1
    24    13    14    2
    25    13    15    1
    26    15    16    1
    27    15    34    1
    28    15    35    1
    29    16    17    2
    30    16    18    2
    31    16    19    1
    32    19    20    1
    33    19    21    1
    34    19    36    1
    35    20    37    1
    36    20    38    1
    37    20    39    1
    38    21    40    1
    39    21    41    1
    40    21    42    1
    41    22    23    1
    42    22    24   ar
    43    24    43    1
@<TRIPOS>SUBSTRUCTURE
     1 ZINC000744839011        1 TEMP              0 ****  ****    0 ROOT


##########                                Name:    ZINC000058043838
##########                DOCK_Rotatable_Bonds:                   8
##########                         Heavy_Atoms:                  29
##########                    Molecular_Weight:             412.469
##########                DOCK_Rotatable_Bonds:                   8
##########                       Formal_Charge:           0.0200001
##########                     HBond_Acceptors:                   9
##########                        HBond_Donors:                   0
##########                         Heavy_Atoms:                  29
##########                          Grid_Score:          -36.334068
##########                     Grid_vdw_energy:          -36.431484
##########                      Grid_es_energy:            0.097417
##########           Internal_energy_repulsive:           17.009350

@<TRIPOS>MOLECULE
ZINC000058043838
 49 51 1 0 0
SMALL
USER_CHARGES


@<TRIPOS>ATOM
      1 C1        -10.8918   -2.1426   52.6223 C.3     1  ZINC000058043838    0.0300
      2 O2        -11.7620   -1.4410   53.5126 O.3     1  ZINC000058043838   -0.3800
      3 C3        -11.7495   -1.9404   54.8514 C.3     1  ZINC000058043838    0.0300
      4 C4        -12.1243   -3.4237   54.8459 C.3     1  ZINC000058043838    0.1000
      5 N5        -12.6291   -3.8047   56.1674 N.am    1  ZINC000058043838   -0.5200
      6 C6        -13.9453   -4.0333   56.3457 C.2     1  ZINC000058043838    0.5100
      7 O7        -14.7120   -3.9219   55.4126 O.2     1  ZINC000058043838   -0.4500
      8 C8        -14.4644   -4.4269   57.7047 C.3     1  ZINC000058043838   -0.0900
      9 C9        -14.7457   -3.1869   58.5135 C.ar    1  ZINC000058043838   -0.1400
     10 C10       -15.0567   -1.9926   57.8819 C.ar    1  ZINC000058043838   -0.0500
     11 C11       -15.3084   -0.8771   58.6665 C.ar    1  ZINC000058043838   -0.1700
     12 C12       -15.2416   -0.9923   60.0419 C.ar    1  ZINC000058043838    0.1300
     13 C13       -15.5138    0.2131   60.9044 C.3     1  ZINC000058043838   -0.1100
     14 N14       -14.9426   -2.1451   60.6087 N.ar    1  ZINC000058043838   -0.4800
     15 C15       -14.7025   -3.2272   59.8945 C.ar    1  ZINC000058043838    0.1200
     16 C16       -11.7509   -3.9305   57.2368 C.2     1  ZINC000058043838    0.3100
     17 N17       -11.5616   -3.0398   58.1598 N.2     1  ZINC000058043838   -0.4700
     18 C18       -10.6817   -3.3322   59.1072 C.2     1  ZINC000058043838    0.1100
     19 C19       -10.3746   -2.3998   60.2190 C.ar    1  ZINC000058043838    0.0400
     20 C20        -9.1363   -2.4551   60.8565 C.ar    1  ZINC000058043838   -0.0800
     21 C21        -8.8559   -1.5847   61.8901 C.ar    1  ZINC000058043838   -0.0500
     22 C22        -9.8010   -0.6587   62.2937 C.ar    1  ZINC000058043838   -0.0400
     23 N23        -9.4942    0.2724   63.4030 N.pl3   1  ZINC000058043838    0.0300
     24 O24        -8.4115    0.2221   63.9585 O.2     1  ZINC000058043838   -0.1600
     25 O25       -10.3247    1.0886   63.7602 O.2     1  ZINC000058043838   -0.1600
     26 C26       -11.0314   -0.5990   61.6644 C.ar    1  ZINC000058043838   -0.0500
     27 C27       -11.3211   -1.4612   60.6265 C.ar    1  ZINC000058043838   -0.1100
     28 C28       -10.0869   -4.5331   58.9908 C.2     1  ZINC000058043838   -0.2600
     29 S29       -10.7269   -5.3278   57.5541 S.3     1  ZINC000058043838    0.1500
     30 H30        -9.8660   -2.0688   52.9835 H       1  ZINC000058043838    0.0500
     31 H31       -11.1865   -3.1911   52.5773 H       1  ZINC000058043838    0.0400
     32 H32       -10.9591   -1.7032   51.6270 H       1  ZINC000058043838    0.0900
     33 H33       -10.7526   -1.8191   55.2751 H       1  ZINC000058043838    0.0600
     34 H34       -12.4699   -1.3858   55.4527 H       1  ZINC000058043838    0.0800
     35 H35       -12.8964   -3.6006   54.0972 H       1  ZINC000058043838    0.1200
     36 H36       -11.2436   -4.0201   54.6076 H       1  ZINC000058043838    0.1000
     37 H37       -15.3832   -5.0020   57.5900 H       1  ZINC000058043838    0.1100
     38 H38       -13.7177   -5.0334   58.2172 H       1  ZINC000058043838    0.1100
     39 H39       -15.1014   -1.9322   56.8046 H       1  ZINC000058043838    0.1300
     40 H40       -15.5534    0.0697   58.2083 H       1  ZINC000058043838    0.1400
     41 H41       -16.5770    0.2585   61.1403 H       1  ZINC000058043838    0.0800
     42 H42       -14.9398    0.1364   61.8277 H       1  ZINC000058043838    0.0800
     43 H43       -15.2216    1.1164   60.3689 H       1  ZINC000058043838    0.0800
     44 H44       -14.4608   -4.1537   60.3941 H       1  ZINC000058043838    0.1500
     45 H45        -8.3978   -3.1779   60.5424 H       1  ZINC000058043838    0.1600
     46 H46        -7.8969   -1.6268   62.3850 H       1  ZINC000058043838    0.1600
     47 H47       -11.7655    0.1259   61.9836 H       1  ZINC000058043838    0.1600
     48 H48       -12.2819   -1.4135   60.1355 H       1  ZINC000058043838    0.1500
     49 H49        -9.3475   -4.9412   59.6638 H       1  ZINC000058043838    0.1800
@<TRIPOS>BOND
     1     1     2    1
     2     1    30    1
     3     1    31    1
     4     1    32    1
     5     2     3    1
     6     3     4    1
     7     3    33    1
     8     3    34    1
     9     4     5    1
    10     4    35    1
    11     4    36    1
    12     5     6   am
    13     5    16    1
    14     6     7    2
    15     6     8    1
    16     8     9    1
    17     8    37    1
    18     8    38    1
    19     9    15   ar
    20     9    10   ar
    21    10    11   ar
    22    10    39    1
    23    11    12   ar
    24    11    40    1
    25    12    13    1
    26    12    14   ar
    27    13    41    1
    28    13    42    1
    29    13    43    1
    30    14    15   ar
    31    15    44    1
    32    16    29    1
    33    16    17    2
    34    17    18    1
    35    18    19    1
    36    18    28    2
    37    19    27   ar
    38    19    20   ar
    39    20    21   ar
    40    20    45    1
    41    21    22   ar
    42    21    46    1
    43    22    23    1
    44    22    26   ar
    45    23    24    2
    46    23    25    2
    47    26    27   ar
    48    26    47    1
    49    27    48    1
    50    28    29    1
    51    28    49    1
@<TRIPOS>SUBSTRUCTURE
     1 ZINC000058043838        1 TEMP              0 ****  ****    0 ROOT


##########                                Name:    ZINC000461678839
##########                DOCK_Rotatable_Bonds:                   6
##########                         Heavy_Atoms:                  28
##########                    Molecular_Weight:             404.939
##########                DOCK_Rotatable_Bonds:                   6
##########                       Formal_Charge:          -0.0200003
##########                     HBond_Acceptors:                   7
##########                        HBond_Donors:                   0
##########                         Heavy_Atoms:                  28
##########                          Grid_Score:          -36.305008
##########                     Grid_vdw_energy:          -35.075092
##########                      Grid_es_energy:           -1.229914
##########           Internal_energy_repulsive:           12.918144

@<TRIPOS>MOLECULE
ZINC000461678839
 57 60 1 0 0
SMALL
USER_CHARGES


@<TRIPOS>ATOM
      1 C1        -11.8339   -1.8402   51.7266 C.3     1  ZINC000461678839   -0.1500
      2 C2        -12.1131   -2.6433   52.9986 C.3     1  ZINC000461678839   -0.0900
      3 H3        -12.4597   -3.6388   52.7215 H       1  ZINC000461678839    0.0700
      4 C4        -13.2190   -1.9325   53.8107 C.3     1  ZINC000461678839   -0.1100
      5 C5        -13.7976   -2.9069   54.8017 C.3     1  ZINC000461678839   -0.1200
      6 C6        -13.0925   -2.8617   56.1691 C.3     1  ZINC000461678839    0.0600
      7 N7        -11.6199   -2.7629   56.0661 N.3     1  ZINC000461678839   -0.4600
      8 C8        -11.0193   -2.9981   57.2927 C.2     1  ZINC000461678839    0.3700
      9 N9        -10.6001   -4.1557   57.7466 N.2     1  ZINC000461678839   -0.3100
     10 N10       -10.0939   -4.0077   58.9188 N.2     1  ZINC000461678839   -0.2500
     11 C11       -10.1597   -2.7574   59.2792 C.2     1  ZINC000461678839    0.1700
     12 C12        -9.6729   -2.1764   60.5818 C.3     1  ZINC000461678839    0.1500
     13 O13       -10.7433   -1.4785   61.2216 O.3     1  ZINC000461678839   -0.3100
     14 C14       -10.4350   -0.7638   62.3358 C.ar    1  ZINC000461678839    0.1400
     15 C15        -9.1503   -0.8099   62.8571 C.ar    1  ZINC000461678839   -0.2000
     16 C16        -8.8389   -0.0828   63.9898 C.ar    1  ZINC000461678839   -0.0700
     17 C17        -9.8075    0.6907   64.6044 C.ar    1  ZINC000461678839   -0.0700
     18 Cl18       -9.4140    1.6030   66.0280 Cl      1  ZINC000461678839   -0.0700
     19 C19       -11.0894    0.7383   64.0857 C.ar    1  ZINC000461678839   -0.0700
     20 C20       -11.4031    0.0172   62.9500 C.ar    1  ZINC000461678839   -0.1400
     21 N21       -10.7469   -2.0688   58.2540 N.pl3   1  ZINC000461678839   -0.4600
     22 C22       -11.0323   -0.6329   58.2021 C.3     1  ZINC000461678839    0.1200
     23 C23        -9.7353    0.1358   57.9418 C.3     1  ZINC000461678839   -0.1400
     24 H24        -8.8948   -0.3608   58.4267 H       1  ZINC000461678839    0.0900
     25 C25        -9.8619    1.5963   58.4391 C.3     1  ZINC000461678839   -0.1500
     26 C26        -9.1472    2.3858   57.3130 C.3     1  ZINC000461678839    0.0500
     27 O27        -9.5215    1.6749   56.1134 O.3     1  ZINC000461678839   -0.3700
     28 C28        -9.4822    0.2697   56.4276 C.3     1  ZINC000461678839    0.0400
     29 C29       -11.0532   -3.6074   55.0423 C.3     1  ZINC000461678839    0.0700
     30 C30       -10.8780   -2.7655   53.7650 C.3     1  ZINC000461678839   -0.1100
     31 H31       -11.0675   -2.3456   51.1388 H       1  ZINC000461678839    0.0500
     32 H32       -12.7485   -1.7605   51.1390 H       1  ZINC000461678839    0.0500
     33 H33       -11.4866   -0.8426   51.9956 H       1  ZINC000461678839    0.0600
     34 H34       -12.7922   -1.0816   54.3419 H       1  ZINC000461678839    0.0700
     35 H35       -14.0033   -1.5884   53.1366 H       1  ZINC000461678839    0.0700
     36 H36       -14.8538   -2.6779   54.9435 H       1  ZINC000461678839    0.0800
     37 H37       -13.7107   -3.9145   54.3950 H       1  ZINC000461678839    0.0700
     38 H38       -13.4627   -2.0004   56.7252 H       1  ZINC000461678839    0.0700
     39 H39       -13.3442   -3.7664   56.7225 H       1  ZINC000461678839    0.0500
     40 H40        -9.3242   -2.9801   61.2303 H       1  ZINC000461678839    0.0800
     41 H41        -8.8532   -1.4849   60.3872 H       1  ZINC000461678839    0.1000
     42 H42        -8.3941   -1.4141   62.3781 H       1  ZINC000461678839    0.1400
     43 H43        -7.8388   -0.1185   64.3959 H       1  ZINC000461678839    0.1400
     44 H44       -11.8441    1.3429   64.5667 H       1  ZINC000461678839    0.1400
     45 H45       -12.4038    0.0546   62.5453 H       1  ZINC000461678839    0.1400
     46 H46       -11.7412   -0.4321   57.3988 H       1  ZINC000461678839    0.1100
     47 H47       -11.4599   -0.3129   59.1523 H       1  ZINC000461678839    0.1000
     48 H48       -10.9083    1.8914   58.5172 H       1  ZINC000461678839    0.0800
     49 H49        -9.3497    1.7286   59.3921 H       1  ZINC000461678839    0.0900
     50 H50        -9.5066    3.4143   57.2776 H       1  ZINC000461678839    0.1000
     51 H51        -8.0665    2.3604   57.4527 H       1  ZINC000461678839    0.0600
     52 H52        -8.5041   -0.1395   56.1748 H       1  ZINC000461678839    0.0500
     53 H53       -10.2604   -0.2559   55.8742 H       1  ZINC000461678839    0.1100
     54 H54       -10.0842   -3.9832   55.3709 H       1  ZINC000461678839    0.0900
     55 H55       -11.7237   -4.4434   54.8431 H       1  ZINC000461678839    0.0600
     56 H56       -10.1201   -3.2330   53.1365 H       1  ZINC000461678839    0.0700
     57 H57       -10.5351   -1.7692   54.0443 H       1  ZINC000461678839    0.0700
@<TRIPOS>BOND
     1     1     2    1
     2     1    31    1
     3     1    32    1
     4     1    33    1
     5     2     3    1
     6     2    30    1
     7     2     4    1
     8     4     5    1
     9     4    34    1
    10     4    35    1
    11     5     6    1
    12     5    36    1
    13     5    37    1
    14     6     7    1
    15     6    38    1
    16     6    39    1
    17     7     8    1
    18     7    29    1
    19     8    21    1
    20     8     9    2
    21     9    10    1
    22    10    11    2
    23    11    12    1
    24    11    21    1
    25    12    13    1
    26    12    40    1
    27    12    41    1
    28    13    14    1
    29    14    20   ar
    30    14    15   ar
    31    15    16   ar
    32    15    42    1
    33    16    17   ar
    34    16    43    1
    35    17    18    1
    36    17    19   ar
    37    19    20   ar
    38    19    44    1
    39    20    45    1
    40    21    22    1
    41    22    23    1
    42    22    46    1
    43    22    47    1
    44    23    24    1
    45    23    28    1
    46    23    25    1
    47    25    26    1
    48    25    48    1
    49    25    49    1
    50    26    27    1
    51    26    50    1
    52    26    51    1
    53    27    28    1
    54    28    52    1
    55    28    53    1
    56    29    30    1
    57    29    54    1
    58    29    55    1
    59    30    56    1
    60    30    57    1
@<TRIPOS>SUBSTRUCTURE
     1 ZINC000461678839        1 TEMP              0 ****  ****    0 ROOT


##########                                Name:    ZINC000428748914
##########                DOCK_Rotatable_Bonds:                  11
##########                         Heavy_Atoms:                  30
##########                    Molecular_Weight:             413.492
##########                DOCK_Rotatable_Bonds:                  11
##########                       Formal_Charge:           0.0199993
##########                     HBond_Acceptors:                   7
##########                        HBond_Donors:                   3
##########                         Heavy_Atoms:                  30
##########                          Grid_Score:          -36.298004
##########                     Grid_vdw_energy:          -35.234547
##########                      Grid_es_energy:           -1.063458
##########           Internal_energy_repulsive:           18.898109

@<TRIPOS>MOLECULE
ZINC000428748914
 58 61 1 0 0
SMALL
USER_CHARGES


@<TRIPOS>ATOM
      1 O1        -12.5686   -3.1809   55.8190 O.2     1  ZINC000428748914   -0.5900
      2 C2        -11.3617   -3.3289   55.8138 C.2     1  ZINC000428748914    0.7000
      3 N3        -10.7304   -3.6774   54.6752 N.am    1  ZINC000428748914   -0.7400
      4 C4        -11.4990   -3.8836   53.4451 C.3     1  ZINC000428748914    0.1900
      5 C5        -11.8040   -2.5496   52.8138 C.ar    1  ZINC000428748914   -0.2000
      6 C6        -10.8301   -1.5626   52.7546 C.ar    1  ZINC000428748914   -0.0200
      7 C7        -11.1523   -0.3519   52.1662 C.ar    1  ZINC000428748914   -0.1900
      8 C8        -12.4313   -0.1666   51.6579 C.ar    1  ZINC000428748914    0.3300
      9 O9        -12.7594    1.0154   51.0783 O.3     1  ZINC000428748914   -0.3000
     10 C10       -14.0906    1.1437   50.5748 C.3     1  ZINC000428748914    0.0800
     11 C11       -14.2621    2.4927   49.8333 C.3     1  ZINC000428748914   -0.1400
     12 C12       -15.4527    2.2116   48.8833 C.3     1  ZINC000428748914   -0.1200
     13 C13       -15.2291    0.7584   48.4163 C.3     1  ZINC000428748914   -0.1200
     14 C14       -14.3631    0.0794   49.4919 C.3     1  ZINC000428748914   -0.1200
     15 N15       -13.3327   -1.1318   51.7331 N.ar    1  ZINC000428748914   -0.5400
     16 C16       -13.0537   -2.2983   52.2828 C.ar    1  ZINC000428748914    0.1600
     17 N17       -10.6547   -3.1392   56.9454 N.am    1  ZINC000428748914   -0.7400
     18 C18       -11.3409   -2.7604   58.1832 C.3     1  ZINC000428748914    0.1800
     19 C19       -10.3692   -2.0091   59.0955 C.3     1  ZINC000428748914   -0.1300
     20 C20       -10.1676   -0.5282   58.7679 C.3     1  ZINC000428748914    0.1100
     21 O21        -9.4231   -0.4059   57.5541 O.3     1  ZINC000428748914   -0.5700
     22 C22        -9.1658   -2.7837   59.6363 C.3     1  ZINC000428748914   -0.1400
     23 C23       -10.3229   -2.4193   60.5687 C.3     1  ZINC000428748914   -0.1000
     24 H24       -10.9846   -3.2245   60.8879 H       1  ZINC000428748914    0.1200
     25 C25       -10.0813   -1.3344   61.5863 C.ar    1  ZINC000428748914   -0.0700
     26 C26        -8.8818   -1.2851   62.2719 C.ar    1  ZINC000428748914   -0.0900
     27 C27        -8.6592   -0.2906   63.2053 C.ar    1  ZINC000428748914   -0.1500
     28 C28        -9.6379    0.6569   63.4534 C.ar    1  ZINC000428748914    0.1000
     29 F29        -9.4211    1.6298   64.3654 F       1  ZINC000428748914   -0.1400
     30 C30       -10.8387    0.6068   62.7659 C.ar    1  ZINC000428748914   -0.1500
     31 C31       -11.0572   -0.3858   61.8295 C.ar    1  ZINC000428748914   -0.0800
     32 H32        -9.7671   -3.7916   54.6701 H       1  ZINC000428748914    0.4000
     33 H33       -10.9173   -4.4897   52.7505 H       1  ZINC000428748914    0.0800
     34 H34       -12.4317   -4.3957   53.6811 H       1  ZINC000428748914    0.0800
     35 H35        -9.8436   -1.7351   53.1588 H       1  ZINC000428748914    0.1400
     36 H36       -10.4188    0.4385   52.1035 H       1  ZINC000428748914    0.1400
     37 H37       -14.8141    1.0570   51.3855 H       1  ZINC000428748914    0.1000
     38 H38       -14.5073    3.2904   50.5344 H       1  ZINC000428748914    0.0700
     39 H39       -13.3646    2.7383   49.2655 H       1  ZINC000428748914    0.0800
     40 H40       -16.3976    2.2989   49.4196 H       1  ZINC000428748914    0.0700
     41 H41       -15.4313    2.8931   48.0328 H       1  ZINC000428748914    0.0700
     42 H42       -16.1857    0.2434   48.3273 H       1  ZINC000428748914    0.0700
     43 H43       -14.7094    0.7498   47.4583 H       1  ZINC000428748914    0.0700
     44 H44       -13.4231   -0.2587   49.0557 H       1  ZINC000428748914    0.0800
     45 H45       -14.8994   -0.7650   49.9248 H       1  ZINC000428748914    0.0700
     46 H46       -13.8150   -3.0631   52.3261 H       1  ZINC000428748914    0.1600
     47 H47        -9.6914   -3.2534   56.9404 H       1  ZINC000428748914    0.3900
     48 H48       -12.1883   -2.1172   57.9465 H       1  ZINC000428748914    0.0700
     49 H49       -11.6961   -3.6573   58.6907 H       1  ZINC000428748914    0.0900
     50 H50       -11.1383   -0.0470   58.6488 H       1  ZINC000428748914    0.0500
     51 H51        -9.6210   -0.0477   59.5793 H       1  ZINC000428748914    0.0600
     52 H52        -9.2152    0.5065   57.3106 H       1  ZINC000428748914    0.3800
     53 H53        -9.0663   -3.8285   59.3422 H       1  ZINC000428748914    0.1100
     54 H54        -8.2299   -2.2384   59.7587 H       1  ZINC000428748914    0.1100
     55 H55        -8.1186   -2.0243   62.0781 H       1  ZINC000428748914    0.1400
     56 H56        -7.7224   -0.2527   63.7412 H       1  ZINC000428748914    0.1400
     57 H57       -11.6029    1.3451   62.9589 H       1  ZINC000428748914    0.1400
     58 H58       -11.9936   -0.4248   61.2928 H       1  ZINC000428748914    0.1300
@<TRIPOS>BOND
     1     1     2    2
     2     2     3   am
     3     2    17   am
     4     3     4    1
     5     3    32    1
     6     4     5    1
     7     4    33    1
     8     4    34    1
     9     5    16   ar
    10     5     6   ar
    11     6     7   ar
    12     6    35    1
    13     7     8   ar
    14     7    36    1
    15     8     9    1
    16     8    15   ar
    17     9    10    1
    18    10    14    1
    19    10    11    1
    20    10    37    1
    21    11    12    1
    22    11    38    1
    23    11    39    1
    24    12    13    1
    25    12    40    1
    26    12    41    1
    27    13    14    1
    28    13    42    1
    29    13    43    1
    30    14    44    1
    31    14    45    1
    32    15    16   ar
    33    16    46    1
    34    17    18    1
    35    17    47    1
    36    18    19    1
    37    18    48    1
    38    18    49    1
    39    19    23    1
    40    19    20    1
    41    19    22    1
    42    20    21    1
    43    20    50    1
    44    20    51    1
    45    21    52    1
    46    22    23    1
    47    22    53    1
    48    22    54    1
    49    23    24    1
    50    23    25    1
    51    25    31   ar
    52    25    26   ar
    53    26    27   ar
    54    26    55    1
    55    27    28   ar
    56    27    56    1
    57    28    29    1
    58    28    30   ar
    59    30    31   ar
    60    30    57    1
    61    31    58    1
@<TRIPOS>SUBSTRUCTURE
     1 ZINC000428748914        1 TEMP              0 ****  ****    0 ROOT


##########                                Name:    ZINC000672622940
##########                DOCK_Rotatable_Bonds:                   7
##########                         Heavy_Atoms:                  30
##########                    Molecular_Weight:             416.523
##########                DOCK_Rotatable_Bonds:                   7
##########                       Formal_Charge:          -0.0100002
##########                     HBond_Acceptors:                   9
##########                        HBond_Donors:                   1
##########                         Heavy_Atoms:                  30
##########                          Grid_Score:          -36.295216
##########                     Grid_vdw_energy:          -34.669937
##########                      Grid_es_energy:           -1.625280
##########           Internal_energy_repulsive:          156.196503

@<TRIPOS>MOLECULE
ZINC000672622940
 62 65 1 0 0
SMALL
USER_CHARGES


@<TRIPOS>ATOM
      1 C1        -12.2986    1.0539   54.4090 C.3     1  ZINC000672622940    0.0800
      2 N2        -13.7329    0.9576   54.1268 N.am    1  ZINC000672622940   -0.6200
      3 C3        -14.5934    2.1310   54.2974 C.3     1  ZINC000672622940    0.0700
      4 C4        -14.2608   -0.2104   53.7103 C.2     1  ZINC000672622940    0.5200
      5 O5        -15.4479   -0.2898   53.4753 O.2     1  ZINC000672622940   -0.5300
      6 C6        -13.3759   -1.4178   53.5366 C.3     1  ZINC000672622940   -0.1000
      7 H7        -13.9941   -2.3033   53.3889 H       1  ZINC000672622940    0.1000
      8 C8        -12.4728   -1.2172   52.3180 C.3     1  ZINC000672622940   -0.1300
      9 C9        -11.5744   -2.4430   52.1416 C.3     1  ZINC000672622940   -0.1100
     10 C10       -10.7111   -2.6265   53.3914 C.3     1  ZINC000672622940   -0.1300
     11 C11       -11.6141   -2.8272   54.6101 C.3     1  ZINC000672622940    0.1400
     12 H12       -12.2324   -3.7126   54.4623 H       1  ZINC000672622940    0.1000
     13 N13       -10.7874   -3.0029   55.8068 N.am    1  ZINC000672622940   -0.6900
     14 C14       -11.2391   -3.7491   56.8342 C.2     1  ZINC000672622940    0.5100
     15 O15       -12.3299   -4.2767   56.7674 O.2     1  ZINC000672622940   -0.5100
     16 C16       -10.3966   -3.9269   58.0557 C.2     1  ZINC000672622940    0.5100
     17 O17       -10.0369   -5.0371   58.3883 O.2     1  ZINC000672622940   -0.5200
     18 N18       -10.0363   -2.8542   58.7878 N.am    1  ZINC000672622940   -0.5800
     19 C19       -10.4690   -1.5044   58.4012 C.3     1  ZINC000672622940    0.0700
     20 C20       -11.1581   -0.8453   59.6001 C.3     1  ZINC000672622940   -0.1200
     21 C21       -10.2183   -0.8823   60.8073 C.3     1  ZINC000672622940    0.0000
     22 C22       -10.8796   -0.2042   61.9795 C.2     1  ZINC000672622940    0.2000
     23 N23       -12.1627   -0.0509   62.1618 N.2     1  ZINC000672622940   -0.2800
     24 N24       -12.3714    0.5705   63.2678 N.2     1  ZINC000672622940   -0.2800
     25 C25       -11.2291    0.8410   63.8418 C.2     1  ZINC000672622940    0.1500
     26 C26       -10.6204    1.4894   65.0663 C.3     1  ZINC000672622940   -0.0400
     27 C27        -9.1683    0.9604   65.0955 C.3     1  ZINC000672622940   -0.1300
     28 C28        -8.9242    0.6247   63.6080 C.3     1  ZINC000672622940    0.1000
     29 N29       -10.2523    0.3548   63.0438 N.pl3   1  ZINC000672622940   -0.4900
     30 C30        -9.9064   -2.3363   61.1688 C.3     1  ZINC000672622940   -0.1200
     31 C31        -9.2083   -3.0130   59.9911 C.3     1  ZINC000672622940    0.1100
     32 C32       -12.5126   -1.6014   54.7864 C.3     1  ZINC000672622940   -0.1100
     33 H33       -12.1168    0.8084   55.4553 H       1  ZINC000672622940    0.0600
     34 H34       -11.7553    0.3558   53.7722 H       1  ZINC000672622940    0.0800
     35 H35       -11.9564    2.0694   54.2094 H       1  ZINC000672622940    0.0700
     36 H36       -14.6328    2.6915   53.3634 H       1  ZINC000672622940    0.0600
     37 H37       -15.5981    1.8081   54.5701 H       1  ZINC000672622940    0.0800
     38 H38       -14.1894    2.7663   55.0856 H       1  ZINC000672622940    0.0700
     39 H39       -13.0879   -1.0865   51.4276 H       1  ZINC000672622940    0.0800
     40 H40       -11.8545   -0.3317   52.4658 H       1  ZINC000672622940    0.0700
     41 H41       -12.1926   -3.3284   51.9939 H       1  ZINC000672622940    0.0700
     42 H42       -10.9310   -2.3000   51.2734 H       1  ZINC000672622940    0.0700
     43 H43       -10.0709   -3.4998   53.2658 H       1  ZINC000672622940    0.0700
     44 H44       -10.0928   -1.7411   53.5392 H       1  ZINC000672622940    0.0700
     45 H45        -9.9151   -2.5822   55.8597 H       1  ZINC000672622940    0.4100
     46 H46        -9.6020   -0.9129   58.1073 H       1  ZINC000672622940    0.0700
     47 H47       -11.1688   -1.5697   57.5680 H       1  ZINC000672622940    0.1400
     48 H48       -11.3984    0.1899   59.3578 H       1  ZINC000672622940    0.0800
     49 H49       -12.0745   -1.3864   59.8358 H       1  ZINC000672622940    0.0800
     50 H50        -9.2920   -0.3625   60.5625 H       1  ZINC000672622940    0.0900
     51 H51       -10.6288    2.5749   64.9670 H       1  ZINC000672622940    0.1000
     52 H52       -11.1557    1.1838   65.9654 H       1  ZINC000672622940    0.1000
     53 H53        -8.4791    1.7317   65.4393 H       1  ZINC000672622940    0.1100
     54 H54        -9.0913    0.0665   65.7147 H       1  ZINC000672622940    0.0900
     55 H55        -8.4601    1.4712   63.1019 H       1  ZINC000672622940    0.1000
     56 H56        -8.2936   -0.2600   63.5199 H       1  ZINC000672622940    0.1000
     57 H57        -9.2558   -2.3625   62.0430 H       1  ZINC000672622940    0.0800
     58 H58       -10.8347   -2.8634   61.3897 H       1  ZINC000672622940    0.0800
     59 H59        -9.0735   -4.0731   60.2062 H       1  ZINC000672622940    0.1000
     60 H60        -8.2378   -2.5458   59.8240 H       1  ZINC000672622940    0.0800
     61 H61       -11.8943   -0.7159   54.9342 H       1  ZINC000672622940    0.0800
     62 H62       -13.1559   -1.7444   55.6546 H       1  ZINC000672622940    0.0800
@<TRIPOS>BOND
     1     1     2    1
     2     1    33    1
     3     1    34    1
     4     1    35    1
     5     2     3    1
     6     2     4   am
     7     3    36    1
     8     3    37    1
     9     3    38    1
    10     4     5    2
    11     4     6    1
    12     6     7    1
    13     6    32    1
    14     6     8    1
    15     8     9    1
    16     8    39    1
    17     8    40    1
    18     9    10    1
    19     9    41    1
    20     9    42    1
    21    10    11    1
    22    10    43    1
    23    10    44    1
    24    11    12    1
    25    11    13    1
    26    11    32    1
    27    13    14   am
    28    13    45    1
    29    14    15    2
    30    14    16    1
    31    16    17    2
    32    16    18   am
    33    18    31    1
    34    18    19    1
    35    19    20    1
    36    19    46    1
    37    19    47    1
    38    20    21    1
    39    20    48    1
    40    20    49    1
    41    21    22    1
    42    21    30    1
    43    21    50    1
    44    22    29    1
    45    22    23    2
    46    23    24    1
    47    24    25    2
    48    25    29    1
    49    25    26    1
    50    26    27    1
    51    26    51    1
    52    26    52    1
    53    27    28    1
    54    27    53    1
    55    27    54    1
    56    28    29    1
    57    28    55    1
    58    28    56    1
    59    30    31    1
    60    30    57    1
    61    30    58    1
    62    31    59    1
    63    31    60    1
    64    32    61    1
    65    32    62    1
@<TRIPOS>SUBSTRUCTURE
     1 ZINC000672622940        1 TEMP              0 ****  ****    0 ROOT


##########                                Name:    ZINC000912668252
##########                DOCK_Rotatable_Bonds:                  10
##########                         Heavy_Atoms:                  30
##########                    Molecular_Weight:             411.433
##########                DOCK_Rotatable_Bonds:                  10
##########                       Formal_Charge:           0.0199993
##########                     HBond_Acceptors:                   8
##########                        HBond_Donors:                   2
##########                         Heavy_Atoms:                  30
##########                          Grid_Score:          -36.294781
##########                     Grid_vdw_energy:          -35.112030
##########                      Grid_es_energy:           -1.182752
##########           Internal_energy_repulsive:           13.456966

@<TRIPOS>MOLECULE
ZINC000912668252
 52 54 1 0 0
SMALL
USER_CHARGES


@<TRIPOS>ATOM
      1 C1          3.1251    1.9935   46.0967 C.3     1  ZINC000912668252   -0.1700
      2 C2          2.7024    1.0956   44.9322 C.3     1  ZINC000912668252    0.1100
      3 N3          2.6308    1.8906   43.7038 N.am    1  ZINC000912668252   -0.6100
      4 C4          3.7832    2.6899   43.2803 C.3     1  ZINC000912668252    0.1000
      5 C5          4.8716    1.7649   42.7318 C.3     1  ZINC000912668252   -0.1800
      6 C6          1.5047    1.8865   42.9631 C.2     1  ZINC000912668252    0.5600
      7 O7          1.4453    2.5462   41.9439 O.2     1  ZINC000912668252   -0.5300
      8 C8          0.3417    1.0798   43.3905 C.ar    1  ZINC000912668252   -0.1100
      9 C9          0.1047   -0.1683   42.8123 C.ar    1  ZINC000912668252   -0.1100
     10 C10        -0.9814   -0.9196   43.2134 C.ar    1  ZINC000912668252   -0.1000
     11 C11        -1.8372   -0.4405   44.1873 C.ar    1  ZINC000912668252   -0.1200
     12 C12        -1.6098    0.8011   44.7693 C.ar    1  ZINC000912668252    0.1400
     13 N13        -2.4792    1.2815   45.7553 N.am    1  ZINC000912668252   -0.6700
     14 C14        -2.1655    1.1382   47.0582 C.2     1  ZINC000912668252    0.5200
     15 O15        -1.1299    0.5929   47.3762 O.2     1  ZINC000912668252   -0.4900
     16 C16        -3.1017    1.6554   48.1199 C.3     1  ZINC000912668252    0.0500
     17 O17        -2.5239    1.4200   49.4311 O.3     1  ZINC000912668252   -0.3300
     18 C18        -3.0848    2.0673   50.4724 C.2     1  ZINC000912668252    0.5400
     19 O19        -2.4919    2.9823   51.0103 O.2     1  ZINC000912668252   -0.4800
     20 C20        -4.4125    1.6669   50.9572 C.2     1  ZINC000912668252    0.0400
     21 C21        -5.1867    2.3820   51.8160 C.2     1  ZINC000912668252   -0.0900
     22 C22        -6.3816    1.6535   52.0280 C.ar    1  ZINC000912668252   -0.1000
     23 C23        -7.5273    1.8888   52.7993 C.ar    1  ZINC000912668252   -0.0900
     24 C24        -8.5439    0.9756   52.8018 C.ar    1  ZINC000912668252    0.0700
     25 F25        -9.6478    1.2045   53.5464 F       1  ZINC000912668252   -0.1400
     26 C26        -8.4521   -0.1872   52.0442 C.ar    1  ZINC000912668252   -0.1100
     27 C27        -7.3354   -0.4396   51.2790 C.ar    1  ZINC000912668252   -0.1000
     28 C28        -6.2871    0.4759   51.2605 C.ar    1  ZINC000912668252    0.1100
     29 N29        -5.0763    0.5063   50.6083 N.pl3   1  ZINC000912668252   -0.5600
     30 C30        -0.5191    1.5609   44.3772 C.ar    1  ZINC000912668252   -0.0700
     31 H31         3.1784    1.4019   47.0108 H       1  ZINC000912668252    0.0700
     32 H32         4.1034    2.4254   45.8860 H       1  ZINC000912668252    0.0600
     33 H33         2.3946    2.7925   46.2232 H       1  ZINC000912668252    0.0600
     34 H34         3.4330    0.2966   44.8058 H       1  ZINC000912668252    0.0800
     35 H35         1.7242    0.6636   45.1430 H       1  ZINC000912668252    0.0900
     36 H36         3.4746    3.3888   42.5029 H       1  ZINC000912668252    0.0900
     37 H37         4.1738    3.2447   44.1334 H       1  ZINC000912668252    0.0800
     38 H38         5.4422    1.3444   43.5599 H       1  ZINC000912668252    0.0600
     39 H39         4.4099    0.9585   42.1621 H       1  ZINC000912668252    0.0700
     40 H40         5.5381    2.3330   42.0828 H       1  ZINC000912668252    0.0700
     41 H41         0.7710   -0.5459   42.0508 H       1  ZINC000912668252    0.1400
     42 H42        -1.1634   -1.8848   42.7646 H       1  ZINC000912668252    0.1400
     43 H43        -2.6856   -1.0327   44.4969 H       1  ZINC000912668252    0.1300
     44 H44        -3.3075    1.7176   45.5010 H       1  ZINC000912668252    0.4200
     45 H45        -3.2566    2.7250   47.9779 H       1  ZINC000912668252    0.1100
     46 H46        -4.0575    1.1367   48.0456 H       1  ZINC000912668252    0.1100
     47 H47        -4.9349    3.3348   52.2578 H       1  ZINC000912668252    0.1700
     48 H48        -7.6067    2.7891   53.3905 H       1  ZINC000912668252    0.1400
     49 H49        -9.2641   -0.8990   52.0565 H       1  ZINC000912668252    0.1400
     50 H50        -7.2731   -1.3456   50.6946 H       1  ZINC000912668252    0.1400
     51 H51        -4.7427   -0.1755   50.0044 H       1  ZINC000912668252    0.4300
     52 H52        -0.3407    2.5259   44.8283 H       1  ZINC000912668252    0.1400
@<TRIPOS>BOND
     1     1     2    1
     2     1    31    1
     3     1    32    1
     4     1    33    1
     5     2     3    1
     6     2    34    1
     7     2    35    1
     8     3     4    1
     9     3     6   am
    10     4     5    1
    11     4    36    1
    12     4    37    1
    13     5    38    1
    14     5    39    1
    15     5    40    1
    16     6     7    2
    17     6     8    1
    18     8    30   ar
    19     8     9   ar
    20     9    10   ar
    21     9    41    1
    22    10    11   ar
    23    10    42    1
    24    11    12   ar
    25    11    43    1
    26    12    13    1
    27    12    30   ar
    28    13    14   am
    29    13    44    1
    30    14    15    2
    31    14    16    1
    32    16    17    1
    33    16    45    1
    34    16    46    1
    35    17    18    1
    36    18    19    2
    37    18    20    1
    38    20    29    1
    39    20    21    2
    40    21    22    1
    41    21    47    1
    42    22    28   ar
    43    22    23   ar
    44    23    24   ar
    45    23    48    1
    46    24    25    1
    47    24    26   ar
    48    26    27   ar
    49    26    49    1
    50    27    28   ar
    51    27    50    1
    52    28    29    1
    53    29    51    1
    54    30    52    1
@<TRIPOS>SUBSTRUCTURE
     1 ZINC000912668252        1 TEMP              0 ****  ****    0 ROOT


##########                                Name:    ZINC001310073555
##########                DOCK_Rotatable_Bonds:                  12
##########                         Heavy_Atoms:                  27
##########                    Molecular_Weight:             380.484
##########                DOCK_Rotatable_Bonds:                  12
##########                       Formal_Charge:          0.00999888
##########                     HBond_Acceptors:                   7
##########                        HBond_Donors:                   2
##########                         Heavy_Atoms:                  27
##########                          Grid_Score:          -36.286552
##########                     Grid_vdw_energy:          -34.515652
##########                      Grid_es_energy:           -1.770901
##########           Internal_energy_repulsive:           34.875111

@<TRIPOS>MOLECULE
ZINC001310073555
 59 59 1 0 0
SMALL
USER_CHARGES


@<TRIPOS>ATOM
      1 C1        -13.7497   -5.4528   55.8128 C.3     1  ZINC001310073555   -0.1600
      2 C2        -14.3103   -4.0511   56.0616 C.3     1  ZINC001310073555   -0.1100
      3 C3        -13.1549   -3.0632   56.2350 C.3     1  ZINC001310073555   -0.0600
      4 C4        -13.7015   -1.6341   56.2345 C.3     1  ZINC001310073555   -0.1100
      5 C5        -14.7066   -1.4722   57.3767 C.3     1  ZINC001310073555   -0.1600
      6 C6        -12.4445   -3.3371   57.5620 C.3     1  ZINC001310073555    0.1600
      7 N7        -11.5688   -2.2091   57.8890 N.am    1  ZINC001310073555   -0.7400
      8 C8        -11.1597   -2.0198   59.1592 C.2     1  ZINC001310073555    0.7100
      9 O9        -11.5163   -2.7860   60.0335 O.2     1  ZINC001310073555   -0.5700
     10 N10       -10.3553   -0.9811   59.4603 N.am    1  ZINC001310073555   -0.6700
     11 C11        -9.9291   -0.7838   60.7831 C.ar    1  ZINC001310073555    0.1000
     12 C12        -8.9867   -1.6329   61.3424 C.ar    1  ZINC001310073555   -0.0400
     13 C13        -8.5670   -1.4388   62.6451 C.ar    1  ZINC001310073555   -0.2200
     14 C14        -9.0869   -0.3946   63.3951 C.ar    1  ZINC001310073555    0.1500
     15 O15        -8.6720   -0.2063   64.6762 O.3     1  ZINC001310073555   -0.3200
     16 C16        -7.9451    0.9924   64.9531 C.3     1  ZINC001310073555    0.0300
     17 C17       -10.0294    0.4582   62.8395 C.ar    1  ZINC001310073555   -0.2300
     18 C18       -10.4485    0.2688   61.5334 C.ar    1  ZINC001310073555    0.1400
     19 O19       -11.3724    1.1037   60.9869 O.3     1  ZINC001310073555   -0.3100
     20 C20       -10.8927    2.3344   60.4417 C.3     1  ZINC001310073555    0.0300
     21 C21       -12.1785   -3.2278   55.0990 C.2     1  ZINC001310073555    0.4800
     22 O22       -11.0296   -3.5237   55.3281 O.2     1  ZINC001310073555   -0.5000
     23 O23       -12.5850   -3.0459   53.8327 O.3     1  ZINC001310073555   -0.3400
     24 C24       -11.8060   -2.1334   53.0150 C.3     1  ZINC001310073555    0.1200
     25 C25       -10.5927   -2.8697   52.4436 C.3     1  ZINC001310073555   -0.1800
     26 C26       -12.6725   -1.6106   51.8674 C.3     1  ZINC001310073555   -0.1400
     27 C27       -11.3321   -0.9582   53.8724 C.3     1  ZINC001310073555   -0.1800
     28 H28       -14.5728   -6.1566   55.6892 H       1  ZINC001310073555    0.0600
     29 H29       -13.1397   -5.4451   54.9094 H       1  ZINC001310073555    0.0500
     30 H30       -13.1373   -5.7553   56.6621 H       1  ZINC001310073555    0.0600
     31 H31       -14.9227   -3.7486   55.2122 H       1  ZINC001310073555    0.0800
     32 H32       -14.9203   -4.0590   56.9649 H       1  ZINC001310073555    0.0800
     33 H33       -12.8800   -0.9308   56.3710 H       1  ZINC001310073555    0.0800
     34 H34       -14.1964   -1.4348   55.2840 H       1  ZINC001310073555    0.0800
     35 H35       -15.5281   -2.1755   57.2402 H       1  ZINC001310073555    0.0600
     36 H36       -14.2117   -1.6716   58.3272 H       1  ZINC001310073555    0.0500
     37 H37       -15.0961   -0.4542   57.3764 H       1  ZINC001310073555    0.0600
     38 H38       -13.1853   -3.4626   58.3516 H       1  ZINC001310073555    0.0800
     39 H39       -11.8491   -4.2459   57.4745 H       1  ZINC001310073555    0.0800
     40 H40       -11.2833   -1.5986   57.1914 H       1  ZINC001310073555    0.4000
     41 H41       -10.0708   -0.3698   58.7629 H       1  ZINC001310073555    0.4100
     42 H42        -8.5805   -2.4468   60.7601 H       1  ZINC001310073555    0.1500
     43 H43        -7.8333   -2.1016   63.0796 H       1  ZINC001310073555    0.1300
     44 H44        -7.0403    1.0172   64.3456 H       1  ZINC001310073555    0.0600
     45 H45        -8.5656    1.8566   64.7162 H       1  ZINC001310073555    0.0600
     46 H46        -7.6747    1.0177   66.0087 H       1  ZINC001310073555    0.1000
     47 H47       -10.4337    1.2711   63.4243 H       1  ZINC001310073555    0.1400
     48 H48       -11.7300    2.9044   60.0394 H       1  ZINC001310073555    0.1000
     49 H49       -10.4028    2.9124   61.2253 H       1  ZINC001310073555    0.0600
     50 H50       -10.1791    2.1252   59.6447 H       1  ZINC001310073555    0.0600
     51 H51       -10.9304   -3.7070   51.8327 H       1  ZINC001310073555    0.0600
     52 H52       -10.0079   -2.1847   51.8296 H       1  ZINC001310073555    0.0700
     53 H53        -9.9754   -3.2421   53.2611 H       1  ZINC001310073555    0.0800
     54 H54       -13.5368   -1.0861   52.2746 H       1  ZINC001310073555    0.0700
     55 H55       -12.0877   -0.9256   51.2535 H       1  ZINC001310073555    0.0800
     56 H56       -13.0101   -2.4479   51.2566 H       1  ZINC001310073555    0.0700
     57 H57       -10.7147   -1.3305   54.6899 H       1  ZINC001310073555    0.0800
     58 H58       -10.7473   -0.2731   53.2585 H       1  ZINC001310073555    0.0700
     59 H59       -12.1964   -0.4335   54.2795 H       1  ZINC001310073555    0.0600
@<TRIPOS>BOND
     1     1     2    1
     2     1    28    1
     3     1    29    1
     4     1    30    1
     5     2     3    1
     6     2    31    1
     7     2    32    1
     8     3     4    1
     9     3     6    1
    10     3    21    1
    11     4     5    1
    12     4    33    1
    13     4    34    1
    14     5    35    1
    15     5    36    1
    16     5    37    1
    17     6     7    1
    18     6    38    1
    19     6    39    1
    20     7     8   am
    21     7    40    1
    22     8     9    2
    23     8    10   am
    24    10    11    1
    25    10    41    1
    26    11    18   ar
    27    11    12   ar
    28    12    13   ar
    29    12    42    1
    30    13    14   ar
    31    13    43    1
    32    14    15    1
    33    14    17   ar
    34    15    16    1
    35    16    44    1
    36    16    45    1
    37    16    46    1
    38    17    18   ar
    39    17    47    1
    40    18    19    1
    41    19    20    1
    42    20    48    1
    43    20    49    1
    44    20    50    1
    45    21    22    2
    46    21    23    1
    47    23    24    1
    48    24    25    1
    49    24    26    1
    50    24    27    1
    51    25    51    1
    52    25    52    1
    53    25    53    1
    54    26    54    1
    55    26    55    1
    56    26    56    1
    57    27    57    1
    58    27    58    1
    59    27    59    1
@<TRIPOS>SUBSTRUCTURE
     1 ZINC001310073555        1 TEMP              0 ****  ****    0 ROOT


##########                                Name:    ZINC000487792031
##########                DOCK_Rotatable_Bonds:                  12
##########                         Heavy_Atoms:                  29
##########                    Molecular_Weight:             414.569
##########                DOCK_Rotatable_Bonds:                  12
##########                       Formal_Charge:          -0.0100001
##########                     HBond_Acceptors:                   6
##########                        HBond_Donors:                   1
##########                         Heavy_Atoms:                  29
##########                          Grid_Score:          -36.268471
##########                     Grid_vdw_energy:          -33.970676
##########                      Grid_es_energy:           -2.297793
##########           Internal_energy_repulsive:           21.471552

@<TRIPOS>MOLECULE
ZINC000487792031
 59 60 1 0 0
SMALL
USER_CHARGES


@<TRIPOS>ATOM
      1 C1         -7.8851    1.8812   57.2559 C.2     1  ZINC000487792031   -0.1900
      2 C2         -8.9574    1.6141   56.5523 C.2     1  ZINC000487792031   -0.1500
      3 C3        -10.3221    1.7537   57.1762 C.3     1  ZINC000487792031   -0.0900
      4 C4        -10.8279    0.3764   57.6096 C.3     1  ZINC000487792031   -0.0900
      5 C5        -10.0755   -0.0716   58.8643 C.3     1  ZINC000487792031   -0.0700
      6 H6         -9.0756    0.3624   58.8627 H       1  ZINC000487792031    0.1100
      7 C7        -10.8217    0.3905   60.0894 C.2     1  ZINC000487792031    0.5200
      8 O8        -11.7329   -0.2764   60.5318 O.2     1  ZINC000487792031   -0.5300
      9 N9        -10.4765    1.5450   60.6931 N.am    1  ZINC000487792031   -0.7200
     10 C10       -11.2030    1.9951   61.8829 C.3     1  ZINC000487792031    0.1500
     11 C11       -10.3597    1.7525   63.1081 C.ar    1  ZINC000487792031   -0.0500
     12 C12       -10.0663    2.7981   63.9634 C.ar    1  ZINC000487792031   -0.1200
     13 C13        -9.2928    2.5755   65.0873 C.ar    1  ZINC000487792031   -0.0200
     14 C14        -8.8132    1.3071   65.3562 C.ar    1  ZINC000487792031   -0.6700
     15 S15        -7.8269    1.0235   66.7884 S.o2    1  ZINC000487792031    2.6900
     16 O16        -8.5588    1.5447   67.8894 O.2     1  ZINC000487792031   -0.9500
     17 O17        -7.3909   -0.3269   66.7144 O.2     1  ZINC000487792031   -0.9500
     18 N18        -6.4701    1.9616   66.6428 N.am    1  ZINC000487792031   -1.0000
     19 C19        -5.5672    1.7721   65.5048 C.3     1  ZINC000487792031    0.1200
     20 C20        -4.2880    1.0792   65.9787 C.3     1  ZINC000487792031   -0.1800
     21 C21        -6.1727    2.9810   67.6521 C.3     1  ZINC000487792031    0.1100
     22 C22        -6.4904    4.3667   67.0864 C.3     1  ZINC000487792031   -0.1800
     23 C23        -9.1078    0.2612   64.5016 C.ar    1  ZINC000487792031   -0.0200
     24 C24        -9.8845    0.4831   63.3797 C.ar    1  ZINC000487792031   -0.1200
     25 C25        -9.9707   -1.5749   58.8774 C.ar    1  ZINC000487792031   -0.0800
     26 C26        -8.8721   -2.1862   59.4521 C.ar    1  ZINC000487792031   -0.1100
     27 C27        -8.7760   -3.5652   59.4640 C.ar    1  ZINC000487792031   -0.1100
     28 C28        -9.7787   -4.3328   58.9016 C.ar    1  ZINC000487792031   -0.1200
     29 C29       -10.8777   -3.7215   58.3278 C.ar    1  ZINC000487792031   -0.1200
     30 C30       -10.9759   -2.3426   58.3197 C.ar    1  ZINC000487792031   -0.1100
     31 H31        -6.9071    1.7812   56.8088 H       1  ZINC000487792031    0.1000
     32 H32        -7.9793    2.2056   58.2817 H       1  ZINC000487792031    0.1000
     33 H33        -8.8634    1.2939   55.5252 H       1  ZINC000487792031    0.1100
     34 H34       -10.2589    2.4078   58.0457 H       1  ZINC000487792031    0.0700
     35 H35       -11.0120    2.1818   56.4489 H       1  ZINC000487792031    0.0700
     36 H36       -11.8947    0.4327   57.8264 H       1  ZINC000487792031    0.0800
     37 H37       -10.6575   -0.3421   56.8079 H       1  ZINC000487792031    0.0700
     38 H38        -9.7470    2.0778   60.3399 H       1  ZINC000487792031    0.4000
     39 H39       -11.4188    3.0600   61.7955 H       1  ZINC000487792031    0.0800
     40 H40       -12.1375    1.4409   61.9694 H       1  ZINC000487792031    0.0800
     41 H41       -10.4411    3.7890   63.7534 H       1  ZINC000487792031    0.1400
     42 H42        -9.0630    3.3925   65.7552 H       1  ZINC000487792031    0.1400
     43 H43        -6.0567    1.1553   64.7513 H       1  ZINC000487792031    0.0800
     44 H44        -5.3170    2.7416   65.0742 H       1  ZINC000487792031    0.0800
     45 H45        -3.7983    1.6960   66.7322 H       1  ZINC000487792031    0.0600
     46 H46        -4.5381    0.1096   66.4093 H       1  ZINC000487792031    0.0600
     47 H47        -3.6162    0.9382   65.1320 H       1  ZINC000487792031    0.0700
     48 H48        -6.7808    2.8026   68.5390 H       1  ZINC000487792031    0.0900
     49 H49        -5.1172    2.9309   67.9193 H       1  ZINC000487792031    0.0900
     50 H50        -5.8822    4.5452   66.1995 H       1  ZINC000487792031    0.0600
     51 H51        -7.5458    4.4169   66.8193 H       1  ZINC000487792031    0.0600
     52 H52        -6.2691    5.1251   67.8373 H       1  ZINC000487792031    0.0700
     53 H53        -8.7334   -0.7297   64.7118 H       1  ZINC000487792031    0.1400
     54 H54       -10.1146   -0.3341   62.7121 H       1  ZINC000487792031    0.1400
     55 H55        -8.0887   -1.5864   59.8913 H       1  ZINC000487792031    0.1200
     56 H56        -7.9174   -4.0428   59.9124 H       1  ZINC000487792031    0.1200
     57 H57        -9.7033   -5.4101   58.9104 H       1  ZINC000487792031    0.1200
     58 H58       -11.6610   -4.3212   57.8881 H       1  ZINC000487792031    0.1200
     59 H59       -11.8346   -1.8650   57.8713 H       1  ZINC000487792031    0.1200
@<TRIPOS>BOND
     1     1     2    2
     2     1    31    1
     3     1    32    1
     4     2     3    1
     5     2    33    1
     6     3     4    1
     7     3    34    1
     8     3    35    1
     9     4     5    1
    10     4    36    1
    11     4    37    1
    12     5     6    1
    13     5     7    1
    14     5    25    1
    15     7     8    2
    16     7     9   am
    17     9    10    1
    18     9    38    1
    19    10    11    1
    20    10    39    1
    21    10    40    1
    22    11    24   ar
    23    11    12   ar
    24    12    13   ar
    25    12    41    1
    26    13    14   ar
    27    13    42    1
    28    14    15    1
    29    14    23   ar
    30    15    16    2
    31    15    17    2
    32    15    18   am
    33    18    19    1
    34    18    21    1
    35    19    20    1
    36    19    43    1
    37    19    44    1
    38    20    45    1
    39    20    46    1
    40    20    47    1
    41    21    22    1
    42    21    48    1
    43    21    49    1
    44    22    50    1
    45    22    51    1
    46    22    52    1
    47    23    24   ar
    48    23    53    1
    49    24    54    1
    50    25    30   ar
    51    25    26   ar
    52    26    27   ar
    53    26    55    1
    54    27    28   ar
    55    27    56    1
    56    28    29   ar
    57    28    57    1
    58    29    30   ar
    59    29    58    1
    60    30    59    1
@<TRIPOS>SUBSTRUCTURE
     1 ZINC000487792031        1 TEMP              0 ****  ****    0 ROOT


##########                                Name:    ZINC000499369364
##########                DOCK_Rotatable_Bonds:                   9
##########                         Heavy_Atoms:                  25
##########                    Molecular_Weight:             384.527
##########                DOCK_Rotatable_Bonds:                   9
##########                       Formal_Charge:        -5.88596e-07
##########                     HBond_Acceptors:                  10
##########                        HBond_Donors:                   1
##########                         Heavy_Atoms:                  25
##########                          Grid_Score:          -36.264530
##########                     Grid_vdw_energy:          -35.672501
##########                      Grid_es_energy:           -0.592030
##########           Internal_energy_repulsive:           20.380081

@<TRIPOS>MOLECULE
ZINC000499369364
 49 51 1 0 0
SMALL
USER_CHARGES


@<TRIPOS>ATOM
      1 C1        -15.8375    0.6966   60.2742 C.3     1  ZINC000499369364   -0.1500
      2 C2        -15.7836   -0.5411   59.3764 C.3     1  ZINC000499369364   -0.1000
      3 C3        -15.4084   -0.1229   57.9533 C.3     1  ZINC000499369364   -0.1500
      4 C4        -14.7346   -1.5162   59.9147 C.3     1  ZINC000499369364    0.1500
      5 H5        -14.8699   -1.6387   60.9893 H       1  ZINC000499369364    0.0900
      6 C6        -14.8953   -2.8713   59.2227 C.3     1  ZINC000499369364   -0.1700
      7 N7        -13.3944   -0.9877   59.6482 N.am    1  ZINC000499369364   -0.7200
      8 C8        -12.3643   -1.3287   60.4477 C.2     1  ZINC000499369364    0.5100
      9 O9        -12.5465   -2.0742   61.3869 O.2     1  ZINC000499369364   -0.5100
     10 C10       -10.9861   -0.7837   60.1748 C.3     1  ZINC000499369364    0.1200
     11 H11       -10.9598   -0.3935   59.1574 H       1  ZINC000499369364    0.1200
     12 C12       -10.7062    0.3750   61.1588 C.3     1  ZINC000499369364   -0.0800
     13 S13        -9.7253   -0.4844   62.4598 S.3     1  ZINC000499369364   -0.2400
     14 C14        -8.9536   -1.6643   61.2764 C.3     1  ZINC000499369364    0.1400
     15 N15       -10.0236   -1.8692   60.2846 N.am    1  ZINC000499369364   -0.6000
     16 C16       -10.1053   -2.9821   59.5289 C.2     1  ZINC000499369364    0.5600
     17 O17        -9.2793   -3.8615   59.6532 O.2     1  ZINC000499369364   -0.5000
     18 C18       -11.2230   -3.1339   58.5295 C.3     1  ZINC000499369364   -0.1500
     19 S19       -10.7557   -4.3610   57.2837 S.3     1  ZINC000499369364    0.1300
     20 C20       -12.3381   -4.7146   56.5940 C.2     1  ZINC000499369364    0.2000
     21 N21       -13.2888   -5.4354   57.1481 N.2     1  ZINC000499369364   -0.3400
     22 N22       -14.3148   -5.4951   56.3779 N.2     1  ZINC000499369364   -0.0300
     23 N23       -14.1011   -4.8299   55.2947 N.2     1  ZINC000499369364   -0.0800
     24 N24       -12.8067   -4.2908   55.3965 N.pl3   1  ZINC000499369364   -0.3300
     25 C25       -12.1106   -3.4569   54.4136 C.3     1  ZINC000499369364    0.0500
     26 C26       -11.5658   -4.1466   53.1612 C.3     1  ZINC000499369364   -0.1500
     27 C27       -12.7935   -3.2389   53.0619 C.3     1  ZINC000499369364   -0.1600
     28 H28       -16.5847    1.3914   59.8908 H       1  ZINC000499369364    0.0600
     29 H29       -16.1047    0.3986   61.2880 H       1  ZINC000499369364    0.0600
     30 H30       -14.8613    1.1816   60.2834 H       1  ZINC000499369364    0.0600
     31 H31       -16.7597   -1.0261   59.3672 H       1  ZINC000499369364    0.0800
     32 H32       -16.1557    0.5719   57.5698 H       1  ZINC000499369364    0.0600
     33 H33       -14.4323    0.3620   57.9625 H       1  ZINC000499369364    0.0600
     34 H34       -15.3699   -1.0047   57.3137 H       1  ZINC000499369364    0.0500
     35 H35       -14.7600   -2.7488   58.1481 H       1  ZINC000499369364    0.0600
     36 H36       -14.1479   -3.5660   59.6061 H       1  ZINC000499369364    0.0600
     37 H37       -15.8924   -3.2645   59.4208 H       1  ZINC000499369364    0.0700
     38 H38       -13.2484   -0.3925   58.8964 H       1  ZINC000499369364    0.4000
     39 H39       -10.1204    1.1609   60.6819 H       1  ZINC000499369364    0.1200
     40 H40       -11.6343    0.7742   61.5678 H       1  ZINC000499369364    0.1300
     41 H41        -8.0720   -1.2239   60.8107 H       1  ZINC000499369364    0.1100
     42 H42        -8.7025   -2.6016   61.7731 H       1  ZINC000499369364    0.1200
     43 H43       -12.1268   -3.4629   59.0424 H       1  ZINC000499369364    0.1300
     44 H44       -11.4088   -2.1759   58.0440 H       1  ZINC000499369364    0.1300
     45 H45       -11.5323   -2.6293   54.8246 H       1  ZINC000499369364    0.1600
     46 H46       -10.6288   -3.7730   52.7481 H       1  ZINC000499369364    0.1200
     47 H47       -11.7254   -5.2208   53.0687 H       1  ZINC000499369364    0.1200
     48 H48       -13.7607   -3.7160   52.9040 H       1  ZINC000499369364    0.1100
     49 H49       -12.6642   -2.2681   52.5835 H       1  ZINC000499369364    0.1200
@<TRIPOS>BOND
     1     1     2    1
     2     1    28    1
     3     1    29    1
     4     1    30    1
     5     2     3    1
     6     2     4    1
     7     2    31    1
     8     3    32    1
     9     3    33    1
    10     3    34    1
    11     4     5    1
    12     4     6    1
    13     4     7    1
    14     6    35    1
    15     6    36    1
    16     6    37    1
    17     7     8   am
    18     7    38    1
    19     8     9    2
    20     8    10    1
    21    10    11    1
    22    10    15    1
    23    10    12    1
    24    12    13    1
    25    12    39    1
    26    12    40    1
    27    13    14    1
    28    14    15    1
    29    14    41    1
    30    14    42    1
    31    15    16   am
    32    16    17    2
    33    16    18    1
    34    18    19    1
    35    18    43    1
    36    18    44    1
    37    19    20    1
    38    20    24    1
    39    20    21    2
    40    21    22    1
    41    22    23    2
    42    23    24    1
    43    24    25    1
    44    25    27    1
    45    25    26    1
    46    25    45    1
    47    26    27    1
    48    26    46    1
    49    26    47    1
    50    27    48    1
    51    27    49    1
@<TRIPOS>SUBSTRUCTURE
     1 ZINC000499369364        1 TEMP              0 ****  ****    0 ROOT


##########                                Name:    ZINC001065334255
##########                DOCK_Rotatable_Bonds:                   7
##########                         Heavy_Atoms:                  23
##########                    Molecular_Weight:             346.448
##########                DOCK_Rotatable_Bonds:                   7
##########                       Formal_Charge:        -5.81145e-07
##########                     HBond_Acceptors:                   8
##########                        HBond_Donors:                   1
##########                         Heavy_Atoms:                  23
##########                          Grid_Score:          -36.212833
##########                     Grid_vdw_energy:          -34.344372
##########                      Grid_es_energy:           -1.868461
##########           Internal_energy_repulsive:           19.866949

@<TRIPOS>MOLECULE
ZINC001065334255
 49 50 1 0 0
SMALL
USER_CHARGES


@<TRIPOS>ATOM
      1 C1         -9.6794    0.7062   63.3258 C.3     1  ZINC001065334255   -0.1500
      2 C2        -10.9731    1.5207   63.3874 C.3     1  ZINC001065334255   -0.0800
      3 C3        -10.9775    2.3757   64.6563 C.3     1  ZINC001065334255   -0.1500
      4 C4        -11.0626    2.4296   62.1598 C.3     1  ZINC001065334255   -0.1400
      5 C5        -11.1177    1.5854   60.9127 C.2     1  ZINC001065334255    0.5100
      6 O6        -12.1873    1.2110   60.4806 O.2     1  ZINC001065334255   -0.5300
      7 N7         -9.9783    1.2465   60.2774 N.am    1  ZINC001065334255   -0.7300
      8 C8        -10.0321    0.4273   59.0641 C.3     1  ZINC001065334255    0.1300
      9 C9        -10.1096   -1.0512   59.4501 C.3     1  ZINC001065334255    0.0700
     10 H10       -11.0493   -1.2435   59.9679 H       1  ZINC001065334255    0.0700
     11 C11       -10.0356   -1.9150   58.1858 C.3     1  ZINC001065334255    0.0800
     12 N12        -9.9231   -3.3247   58.5928 N.am    1  ZINC001065334255   -0.6100
     13 C13       -10.7402   -4.2634   58.0755 C.2     1  ZINC001065334255    0.5400
     14 O14       -10.6314   -5.4203   58.4232 O.2     1  ZINC001065334255   -0.5200
     15 C15       -11.7887   -3.8758   57.0650 C.3     1  ZINC001065334255   -0.1100
     16 H16       -12.3586   -3.0205   57.4282 H       1  ZINC001065334255    0.1200
     17 C17       -12.7311   -5.0634   56.8014 C.3     1  ZINC001065334255   -0.1000
     18 C18       -13.5642   -4.7628   55.5395 C.3     1  ZINC001065334255   -0.5900
     19 S19       -12.5176   -3.6518   54.5315 S.o2    1  ZINC001065334255    2.3900
     20 O20       -12.0912   -4.3385   53.3628 O.2     1  ZINC001065334255   -0.9300
     21 O21       -13.1502   -2.3846   54.4166 O.2     1  ZINC001065334255   -0.9300
     22 C22       -11.1186   -3.5307   55.7101 C.3     1  ZINC001065334255   -0.5900
     23 C23        -8.8918   -3.6791   59.5808 C.3     1  ZINC001065334255    0.0600
     24 C24        -9.0215   -2.7294   60.7771 C.3     1  ZINC001065334255    0.0500
     25 O25        -9.0152   -1.3784   60.3096 O.3     1  ZINC001065334255   -0.3700
     26 H26        -9.6156    0.0589   64.2003 H       1  ZINC001065334255    0.0600
     27 H27        -9.6762    0.0971   62.4218 H       1  ZINC001065334255    0.0500
     28 H28        -8.8246    1.3825   63.3113 H       1  ZINC001065334255    0.0600
     29 H29       -11.8278    0.8445   63.4020 H       1  ZINC001065334255    0.0800
     30 H30       -10.1227    3.0520   64.6418 H       1  ZINC001065334255    0.0500
     31 H31       -11.8992    2.9559   64.7001 H       1  ZINC001065334255    0.0700
     32 H32       -10.9137    1.7282   65.5308 H       1  ZINC001065334255    0.0500
     33 H33       -11.9628    3.0407   62.2250 H       1  ZINC001065334255    0.0900
     34 H34       -10.1862    3.0766   62.1222 H       1  ZINC001065334255    0.0900
     35 H35        -9.1228    1.5449   60.6237 H       1  ZINC001065334255    0.4000
     36 H36       -10.9130    0.6975   58.4820 H       1  ZINC001065334255    0.0900
     37 H37        -9.1358    0.6008   58.4686 H       1  ZINC001065334255    0.0800
     38 H38       -10.9391   -1.7753   57.5922 H       1  ZINC001065334255    0.1100
     39 H39        -9.1623   -1.6317   57.5983 H       1  ZINC001065334255    0.0900
     40 H40       -12.1447   -5.9690   56.6461 H       1  ZINC001065334255    0.1000
     41 H41       -13.3950   -5.2009   57.6548 H       1  ZINC001065334255    0.1000
     42 H42       -13.7724   -5.6839   54.9951 H       1  ZINC001065334255    0.1500
     43 H43       -14.4947   -4.2637   55.8103 H       1  ZINC001065334255    0.1400
     44 H44       -10.7118   -2.5195   55.7250 H       1  ZINC001065334255    0.1400
     45 H45       -10.3435   -4.2572   55.4665 H       1  ZINC001065334255    0.1500
     46 H46        -9.0378   -4.7076   59.9109 H       1  ZINC001065334255    0.1000
     47 H47        -7.9033   -3.5735   59.1336 H       1  ZINC001065334255    0.0900
     48 H48        -9.9569   -2.9285   61.3001 H       1  ZINC001065334255    0.0600
     49 H49        -8.1835   -2.8834   61.4567 H       1  ZINC001065334255    0.1100
@<TRIPOS>BOND
     1     1     2    1
     2     1    26    1
     3     1    27    1
     4     1    28    1
     5     2     3    1
     6     2     4    1
     7     2    29    1
     8     3    30    1
     9     3    31    1
    10     3    32    1
    11     4     5    1
    12     4    33    1
    13     4    34    1
    14     5     6    2
    15     5     7   am
    16     7     8    1
    17     7    35    1
    18     8     9    1
    19     8    36    1
    20     8    37    1
    21     9    10    1
    22     9    25    1
    23     9    11    1
    24    11    12    1
    25    11    38    1
    26    11    39    1
    27    12    13   am
    28    12    23    1
    29    13    14    2
    30    13    15    1
    31    15    16    1
    32    15    22    1
    33    15    17    1
    34    17    18    1
    35    17    40    1
    36    17    41    1
    37    18    19    1
    38    18    42    1
    39    18    43    1
    40    19    20    2
    41    19    21    2
    42    19    22    1
    43    22    44    1
    44    22    45    1
    45    23    24    1
    46    23    46    1
    47    23    47    1
    48    24    25    1
    49    24    48    1
    50    24    49    1
@<TRIPOS>SUBSTRUCTURE
     1 ZINC001065334255        1 TEMP              0 ****  ****    0 ROOT


##########                                Name:     oleObject42.pdb
##########                DOCK_Rotatable_Bonds:                   9
##########                         Heavy_Atoms:                  36
##########                    Molecular_Weight:             527.493
##########                DOCK_Rotatable_Bonds:                   9
##########                       Formal_Charge:         9.99384e-05
##########                     HBond_Acceptors:                   8
##########                        HBond_Donors:                   0
##########                         Heavy_Atoms:                  36
##########                          Grid_Score:          -36.209324
##########                     Grid_vdw_energy:          -35.626553
##########                      Grid_es_energy:           -0.582772
##########           Internal_energy_repulsive:          125.134422

@<TRIPOS>MOLECULE
oleObject42.pdb
 68 71 1 0 0
SMALL
NO_CHARGES


@<TRIPOS>ATOM
      1 C         -12.1919    0.9383   63.3506 C.ar    1  UNL        -0.0435
      2 C         -13.1460   -0.0869   63.2781 C.ar    1  UNL        -0.0559
      3 C         -13.0908   -1.0019   62.2099 C.ar    1  UNL        -0.0272
      4 C         -12.0653   -0.8484   61.2430 C.ar    1  UNL         0.0699
      5 N         -11.1506    0.1460   61.3251 N.ar    1  UNL        -0.2586
      6 C         -11.2115    1.0158   62.3506 C.ar    1  UNL         0.0272
      7 C         -11.9334   -1.8060   60.0465 C.3     1  UNL         0.1101
      8 C         -12.8936   -1.4697   58.8889 C.ar    1  UNL         0.0699
      9 C         -13.6394   -0.2640   58.8759 C.ar    1  UNL        -0.0272
     10 C         -14.5067   -0.0237   57.7935 C.ar    1  UNL        -0.0559
     11 C         -14.6052   -0.9785   56.7713 C.ar    1  UNL        -0.0435
     12 C         -13.8332   -2.1456   56.8656 C.ar    1  UNL         0.0272
     13 N         -13.0024   -2.3849   57.8971 N.ar    1  UNL        -0.2586
     14 C         -13.5305    0.7716   59.9898 C.3     1  UNL        -0.0379
     15 N         -10.5191   -2.0160   59.6294 N.am    1  UNL        -0.2902
     16 C          -9.8327   -1.1282   58.7998 C.2     1  UNL         0.2180
     17 O          -8.6188   -1.1960   58.6970 O.2     1  UNL        -0.2772
     18 C         -10.6057    0.1205   58.3093 C.3     1  UNL         0.0385
     19 C         -10.9676    0.0055   56.8088 C.3     1  UNL        -0.0289
     20 C          -9.7450    0.2306   55.8935 C.3     1  UNL        -0.0010
     21 N          -9.0877    1.5247   56.1770 N.4     1  UNL        -0.3010
     22 C          -8.6747    1.6921   57.5880 C.3     1  UNL        -0.0010
     23 C          -9.8426    1.4451   58.5731 C.3     1  UNL        -0.0289
     24 C          -8.0444    1.8974   55.1960 C.3     1  UNL         0.0222
     25 C          -8.5548    1.9933   53.7408 C.3     1  UNL         0.0661
     26 O          -7.8101    3.0286   53.0805 O.3     1  UNL        -0.3432
     27 C          -6.6566    2.6962   52.4135 C.ar    1  UNL         0.0937
     28 C          -6.6747    1.6159   51.5153 C.ar    1  UNL        -0.0288
     29 C          -5.5059    1.2563   50.8240 C.ar    1  UNL        -0.0408
     30 C          -4.3182    1.9766   51.0345 C.ar    1  UNL         0.0422
     31 C          -4.2956    3.0540   51.9359 C.ar    1  UNL        -0.0221
     32 C          -5.4637    3.4154   52.6282 C.ar    1  UNL         0.0723
     33 CL         -5.4078    4.7610   53.7518 Cl      1  UNL        -0.0814
     34 CL         -2.8614    1.5285   50.1733 Cl      1  UNL        -0.0843
     35 C          -9.9081   -3.3076   60.0022 C.3     1  UNL         0.0038
     36 C         -14.1247   -2.1198   62.1306 C.3     1  UNL        -0.0379
     37 H         -12.2105    1.6571   64.1645 H       1  UNL         0.0639
     38 H         -13.9146   -0.1688   64.0415 H       1  UNL         0.0627
     39 H         -10.4514    1.7959   62.3702 H       1  UNL         0.0840
     40 H         -12.2716   -2.7756   60.4209 H       1  UNL         0.0643
     41 H         -15.0947    0.8883   57.7436 H       1  UNL         0.0627
     42 H         -15.2652   -0.8183   55.9239 H       1  UNL         0.0639
     43 H         -13.8802   -2.9124   56.0933 H       1  UNL         0.0840
     44 H         -13.8781    0.3617   60.9461 H       1  UNL         0.0280
     45 H         -14.1372    1.6602   59.7754 H       1  UNL         0.0280
     46 H         -12.4948    1.1094   60.1189 H       1  UNL         0.0280
     47 H         -11.5404    0.1936   58.8746 H       1  UNL         0.0402
     48 H         -11.7301    0.7573   56.5671 H       1  UNL         0.0288
     49 H         -11.4129   -0.9735   56.5961 H       1  UNL         0.0288
     50 H         -10.0782    0.2029   54.8481 H       1  UNL         0.0431
     51 H          -9.0350   -0.5934   56.0397 H       1  UNL         0.0431
     52 H          -8.2943    2.7096   57.7448 H       1  UNL         0.0431
     53 H          -7.8576    0.9999   57.8227 H       1  UNL         0.0431
     54 H         -10.5504    2.2790   58.4800 H       1  UNL         0.0288
     55 H          -9.4713    1.4656   59.6058 H       1  UNL         0.0288
     56 H          -7.2320    1.1605   55.2332 H       1  UNL         0.0455
     57 H          -7.6135    2.8666   55.4781 H       1  UNL         0.0455
     58 H          -9.6241    2.2373   53.7318 H       1  UNL         0.0586
     59 H          -8.4084    1.0374   53.2230 H       1  UNL         0.0586
     60 H          -7.5939    1.0596   51.3559 H       1  UNL         0.0652
     61 H          -5.5216    0.4218   50.1286 H       1  UNL         0.0639
     62 H          -3.3748    3.6069   52.0984 H       1  UNL         0.0655
     63 H         -10.3224   -3.6712   60.9508 H       1  UNL         0.0433
     64 H          -8.8239   -3.1886   60.1226 H       1  UNL         0.0433
     65 H         -10.1020   -4.0483   59.2163 H       1  UNL         0.0433
     66 H         -14.8093   -2.0980   62.9877 H       1  UNL         0.0280
     67 H         -13.6448   -3.1060   62.1247 H       1  UNL         0.0280
     68 H         -14.7351   -2.0303   61.2238 H       1  UNL         0.0280
@<TRIPOS>BOND
     1     1     2   ar
     2     1     6   ar
     3     1    37    1
     4     2     3   ar
     5     2    38    1
     6     3     4   ar
     7     3    36    1
     8     4     5   ar
     9     4     7    1
    10     5     6   ar
    11     6    39    1
    12     7     8    1
    13     7    15    1
    14     7    40    1
    15     8     9   ar
    16     8    13   ar
    17     9    10   ar
    18     9    14    1
    19    10    11   ar
    20    10    41    1
    21    11    12   ar
    22    11    42    1
    23    12    13   ar
    24    12    43    1
    25    14    44    1
    26    14    45    1
    27    14    46    1
    28    15    16   am
    29    15    35    1
    30    16    17    2
    31    16    18    1
    32    18    19    1
    33    18    23    1
    34    18    47    1
    35    19    20    1
    36    19    48    1
    37    19    49    1
    38    20    21    1
    39    20    50    1
    40    20    51    1
    41    21    22    1
    42    21    24    1
    43    22    23    1
    44    22    52    1
    45    22    53    1
    46    23    54    1
    47    23    55    1
    48    24    25    1
    49    24    56    1
    50    24    57    1
    51    25    26    1
    52    25    58    1
    53    25    59    1
    54    26    27    1
    55    27    28   ar
    56    27    32   ar
    57    28    29   ar
    58    28    60    1
    59    29    30   ar
    60    29    61    1
    61    30    31   ar
    62    30    34    1
    63    31    32   ar
    64    31    62    1
    65    32    33    1
    66    35    63    1
    67    35    64    1
    68    35    65    1
    69    36    66    1
    70    36    67    1
    71    36    68    1
@<TRIPOS>SUBSTRUCTURE
     1 UNL         1 TEMP              0 ****  ****    0 ROOT


##########                                Name:    ZINC000573650873
##########                DOCK_Rotatable_Bonds:                  10
##########                         Heavy_Atoms:                  28
##########                    Molecular_Weight:             418.843
##########                DOCK_Rotatable_Bonds:                  10
##########                       Formal_Charge:          -0.0500001
##########                     HBond_Acceptors:                   9
##########                        HBond_Donors:                   1
##########                         Heavy_Atoms:                  28
##########                          Grid_Score:          -36.207897
##########                     Grid_vdw_energy:          -36.116238
##########                      Grid_es_energy:           -0.091659
##########           Internal_energy_repulsive:           12.002003

@<TRIPOS>MOLECULE
ZINC000573650873
 50 51 1 0 0
SMALL
USER_CHARGES


@<TRIPOS>ATOM
      1 C1        -11.1426   -3.7326   52.8439 C.3     1  ZINC000573650873   -0.1400
      2 C2        -12.0059   -2.8945   53.7890 C.3     1  ZINC000573650873    0.0100
      3 C3        -11.5930   -1.4247   53.6887 C.3     1  ZINC000573650873   -0.1400
      4 C4        -13.4780   -3.0385   53.3976 C.3     1  ZINC000573650873   -0.1500
      5 C5        -11.8132   -3.3749   55.2043 C.2     1  ZINC000573650873   -0.0100
      6 C6        -11.0303   -2.8072   56.1508 C.2     1  ZINC000573650873   -0.1800
      7 C7        -11.2068   -3.6437   57.2880 C.2     1  ZINC000573650873   -0.0300
      8 C8        -10.5749   -3.4821   58.6201 C.2     1  ZINC000573650873    0.6000
      9 O9         -9.6093   -4.1558   58.9201 O.2     1  ZINC000573650873   -0.5100
     10 N10       -11.0717   -2.5880   59.4978 N.am    1  ZINC000573650873   -0.5900
     11 C11       -10.4475   -2.4284   60.8135 C.3     1  ZINC000573650873    0.1200
     12 C12        -9.3861   -1.3287   60.7444 C.3     1  ZINC000573650873   -0.1000
     13 C13        -9.3638   -0.5695   62.0460 C.ar    1  ZINC000573650873   -0.0800
     14 C14        -8.6964   -1.0909   63.1386 C.ar    1  ZINC000573650873   -0.1000
     15 C15        -8.6755   -0.3951   64.3327 C.ar    1  ZINC000573650873   -0.1100
     16 C16        -9.3228    0.8233   64.4343 C.ar    1  ZINC000573650873   -0.0400
     17 Cl17       -9.2966    1.6982   65.9336 Cl      1  ZINC000573650873   -0.0700
     18 C18        -9.9906    1.3447   63.3405 C.ar    1  ZINC000573650873   -0.1100
     19 C19       -10.0059    0.6506   62.1453 C.ar    1  ZINC000573650873   -0.1000
     20 C20       -12.2360   -1.7758   59.1361 C.3     1  ZINC000573650873    0.0700
     21 C21       -13.5163   -2.5183   59.5243 C.3     1  ZINC000573650873    0.0600
     22 H22       -13.4152   -3.5736   59.2712 H       1  ZINC000573650873    0.1400
     23 O23       -13.7369   -2.3846   60.9298 O.3     1  ZINC000573650873   -0.5200
     24 C24       -14.7022   -1.9226   58.7629 C.3     1  ZINC000573650873    0.4300
     25 F25       -14.7961   -0.5550   59.0421 F       1  ZINC000573650873   -0.1700
     26 F26       -14.5138   -2.1062   57.3889 F       1  ZINC000573650873   -0.1700
     27 F27       -15.8810   -2.5619   59.1615 F       1  ZINC000573650873   -0.1800
     28 N28       -12.0407   -4.5850   56.9213 N.2     1  ZINC000573650873   -0.3400
     29 O29       -12.3883   -4.4442   55.7719 O.3     1  ZINC000573650873    0.1300
     30 H30       -10.0938   -3.6300   53.1228 H       1  ZINC000573650873    0.0600
     31 H31       -11.4369   -4.7797   52.9154 H       1  ZINC000573650873    0.0600
     32 H32       -11.2821   -3.3851   51.8202 H       1  ZINC000573650873    0.0700
     33 H33       -11.7323   -1.0773   52.6650 H       1  ZINC000573650873    0.0700
     34 H34       -12.2080   -0.8278   54.3619 H       1  ZINC000573650873    0.0600
     35 H35       -10.5442   -1.3222   53.9676 H       1  ZINC000573650873    0.0600
     36 H36       -13.7723   -4.0856   53.4691 H       1  ZINC000573650873    0.0600
     37 H37       -14.0931   -2.4415   54.0708 H       1  ZINC000573650873    0.0600
     38 H38       -13.6174   -2.6910   52.3739 H       1  ZINC000573650873    0.0700
     39 H39       -10.4143   -1.9244   56.0632 H       1  ZINC000573650873    0.1800
     40 H40       -11.2074   -2.1545   61.5453 H       1  ZINC000573650873    0.0900
     41 H41        -9.9794   -3.3672   61.1098 H       1  ZINC000573650873    0.1000
     42 H42        -8.4085   -1.7777   60.5689 H       1  ZINC000573650873    0.0800
     43 H43        -9.6236   -0.6452   59.9291 H       1  ZINC000573650873    0.0800
     44 H44        -8.1914   -2.0424   63.0592 H       1  ZINC000573650873    0.1300
     45 H45        -8.1544   -0.8028   65.1863 H       1  ZINC000573650873    0.1300
     46 H46       -10.4964    2.2957   63.4193 H       1  ZINC000573650873    0.1300
     47 H47       -10.5270    1.0576   61.2913 H       1  ZINC000573650873    0.1300
     48 H48       -12.1935   -0.8239   59.6651 H       1  ZINC000573650873    0.1000
     49 H49       -12.2329   -1.5946   58.0612 H       1  ZINC000573650873    0.1200
     50 H50       -13.6973   -1.4726   61.2491 H       1  ZINC000573650873    0.3900
@<TRIPOS>BOND
     1     1     2    1
     2     1    30    1
     3     1    31    1
     4     1    32    1
     5     2     3    1
     6     2     4    1
     7     2     5    1
     8     3    33    1
     9     3    34    1
    10     3    35    1
    11     4    36    1
    12     4    37    1
    13     4    38    1
    14     5    29    1
    15     5     6    2
    16     6     7    1
    17     6    39    1
    18     7     8    1
    19     7    28    2
    20     8     9    2
    21     8    10   am
    22    10    11    1
    23    10    20    1
    24    11    12    1
    25    11    40    1
    26    11    41    1
    27    12    13    1
    28    12    42    1
    29    12    43    1
    30    13    19   ar
    31    13    14   ar
    32    14    15   ar
    33    14    44    1
    34    15    16   ar
    35    15    45    1
    36    16    17    1
    37    16    18   ar
    38    18    19   ar
    39    18    46    1
    40    19    47    1
    41    20    21    1
    42    20    48    1
    43    20    49    1
    44    21    22    1
    45    21    23    1
    46    21    24    1
    47    23    50    1
    48    24    25    1
    49    24    26    1
    50    24    27    1
    51    28    29    1
@<TRIPOS>SUBSTRUCTURE
     1 ZINC000573650873        1 TEMP              0 ****  ****    0 ROOT


##########                                Name:    ZINC000654382142
##########                DOCK_Rotatable_Bonds:                  14
##########                         Heavy_Atoms:                  24
##########                    Molecular_Weight:             379.401
##########                DOCK_Rotatable_Bonds:                  14
##########                       Formal_Charge:          0.00999933
##########                     HBond_Acceptors:                  12
##########                        HBond_Donors:                   2
##########                         Heavy_Atoms:                  24
##########                          Grid_Score:          -36.190937
##########                     Grid_vdw_energy:          -34.934875
##########                      Grid_es_energy:           -1.256063
##########           Internal_energy_repulsive:           21.520540

@<TRIPOS>MOLECULE
ZINC000654382142
 48 47 1 0 0
SMALL
USER_CHARGES


@<TRIPOS>ATOM
      1 C1         -7.1739   -0.7113   51.3602 C.3     1  ZINC000654382142    0.0300
      2 O2         -8.2793   -1.6167   51.3794 O.3     1  ZINC000654382142   -0.3700
      3 C3         -9.3865   -1.1657   52.1622 C.3     1  ZINC000654382142    0.0400
      4 C4        -10.5406   -2.1620   52.0347 C.3     1  ZINC000654382142    0.1400
      5 N5        -11.6364   -1.7557   52.9181 N.am    1  ZINC000654382142   -0.6100
      6 C6        -12.5828   -0.7248   52.4847 C.3     1  ZINC000654382142    0.0800
      7 C7        -13.5301   -1.3107   51.4357 C.3     1  ZINC000654382142    0.0500
      8 H8        -12.9619   -1.9196   50.7326 H       1  ZINC000654382142    0.1400
      9 O9        -14.1767   -0.2484   50.7317 O.3     1  ZINC000654382142   -0.5200
     10 C10       -14.5829   -2.1790   52.1276 C.3     1  ZINC000654382142    0.4200
     11 F11       -13.9881   -3.3619   52.5795 F       1  ZINC000654382142   -0.1800
     12 F12       -15.1205   -1.4823   53.2151 F       1  ZINC000654382142   -0.1700
     13 F13       -15.6027   -2.4868   51.2207 F       1  ZINC000654382142   -0.1800
     14 C14       -11.7739   -2.3302   54.1294 C.2     1  ZINC000654382142    0.7100
     15 O15       -10.9875   -3.1848   54.4897 O.2     1  ZINC000654382142   -0.5600
     16 N16       -12.7830   -1.9576   54.9414 N.am    1  ZINC000654382142   -0.7500
     17 C17       -12.9334   -2.5834   56.2575 C.3     1  ZINC000654382142    0.1400
     18 C18       -12.0111   -1.8884   57.2611 C.3     1  ZINC000654382142   -0.1600
     19 C19       -11.9184   -2.7295   58.5357 C.3     1  ZINC000654382142    0.1200
     20 N20       -10.6806   -3.5128   58.5150 N.am    1  ZINC000654382142   -1.0000
     21 C21       -10.6348   -4.7917   57.8020 C.3     1  ZINC000654382142    0.0900
     22 S22        -9.3330   -2.9525   59.2976 S.o2    1  ZINC000654382142    2.6100
     23 C23        -9.8443   -2.8072   61.0319 C.3     1  ZINC000654382142   -0.6800
     24 O24        -8.3798   -3.9953   59.1444 O.2     1  ZINC000654382142   -0.9500
     25 O25        -9.1095   -1.6672   58.7343 O.2     1  ZINC000654382142   -0.9500
     26 H26        -6.3752   -1.1260   50.7453 H       1  ZINC000654382142    0.0900
     27 H27        -7.4940    0.2441   50.9442 H       1  ZINC000654382142    0.0400
     28 H28        -6.8095   -0.5612   52.3765 H       1  ZINC000654382142    0.0400
     29 H29        -9.0859   -1.0897   53.2071 H       1  ZINC000654382142    0.0500
     30 H30        -9.7096   -0.1878   51.8050 H       1  ZINC000654382142    0.0600
     31 H31       -10.8929   -2.1799   51.0034 H       1  ZINC000654382142    0.0900
     32 H32       -10.1952   -3.1563   52.3180 H       1  ZINC000654382142    0.1000
     33 H33       -13.1597   -0.3778   53.3419 H       1  ZINC000654382142    0.1000
     34 H34       -12.0350    0.1126   52.0523 H       1  ZINC000654382142    0.1000
     35 H35       -13.5689    0.3422   50.2662 H       1  ZINC000654382142    0.3900
     36 H36       -13.4095   -1.2750   54.6545 H       1  ZINC000654382142    0.3900
     37 H37       -13.9676   -2.4890   56.5886 H       1  ZINC000654382142    0.0700
     38 H38       -12.6682   -3.6386   56.1905 H       1  ZINC000654382142    0.0700
     39 H39       -11.0180   -1.7779   56.8258 H       1  ZINC000654382142    0.0700
     40 H40       -12.4132   -0.9048   57.5033 H       1  ZINC000654382142    0.0800
     41 H41       -11.9181   -2.0724   59.4055 H       1  ZINC000654382142    0.0900
     42 H42       -12.7738   -3.4031   58.5897 H       1  ZINC000654382142    0.1000
     43 H43       -10.3294   -4.6214   56.7696 H       1  ZINC000654382142    0.0600
     44 H44        -9.9184   -5.4536   58.2885 H       1  ZINC000654382142    0.0700
     45 H45       -11.6230   -5.2517   57.8173 H       1  ZINC000654382142    0.0700
     46 H46       -10.1534   -3.7846   61.4027 H       1  ZINC000654382142    0.1300
     47 H47        -9.0085   -2.4403   61.6277 H       1  ZINC000654382142    0.1300
     48 H48       -10.6784   -2.1095   61.1076 H       1  ZINC000654382142    0.1300
@<TRIPOS>BOND
     1     1     2    1
     2     1    26    1
     3     1    27    1
     4     1    28    1
     5     2     3    1
     6     3     4    1
     7     3    29    1
     8     3    30    1
     9     4     5    1
    10     4    31    1
    11     4    32    1
    12     5     6    1
    13     5    14   am
    14     6     7    1
    15     6    33    1
    16     6    34    1
    17     7     8    1
    18     7     9    1
    19     7    10    1
    20     9    35    1
    21    10    11    1
    22    10    12    1
    23    10    13    1
    24    14    15    2
    25    14    16   am
    26    16    17    1
    27    16    36    1
    28    17    18    1
    29    17    37    1
    30    17    38    1
    31    18    19    1
    32    18    39    1
    33    18    40    1
    34    19    20    1
    35    19    41    1
    36    19    42    1
    37    20    21    1
    38    20    22   am
    39    21    43    1
    40    21    44    1
    41    21    45    1
    42    22    23    1
    43    22    24    2
    44    22    25    2
    45    23    46    1
    46    23    47    1
    47    23    48    1
@<TRIPOS>SUBSTRUCTURE
     1 ZINC000654382142        1 TEMP              0 ****  ****    0 ROOT


##########                                Name:    ZINC001070580102
##########                DOCK_Rotatable_Bonds:                   8
##########                         Heavy_Atoms:                  25
##########                    Molecular_Weight:              349.39
##########                DOCK_Rotatable_Bonds:                   8
##########                       Formal_Charge:          -0.0100003
##########                     HBond_Acceptors:                   9
##########                        HBond_Donors:                   3
##########                         Heavy_Atoms:                  25
##########                          Grid_Score:          -36.144691
##########                     Grid_vdw_energy:          -33.962528
##########                      Grid_es_energy:           -2.182163
##########           Internal_energy_repulsive:           12.829779

@<TRIPOS>MOLECULE
ZINC001070580102
 48 50 1 0 0
SMALL
USER_CHARGES


@<TRIPOS>ATOM
      1 C1         -8.4282    1.0155   64.5567 C.3     1  ZINC001070580102   -0.0800
      2 C2         -9.3098    0.2581   63.5975 C.2     1  ZINC001070580102   -0.0100
      3 C3         -8.9212   -0.7738   62.8329 C.2     1  ZINC001070580102   -0.1900
      4 C4        -10.1107   -1.1835   62.0722 C.2     1  ZINC001070580102   -0.2500
      5 C5        -10.2065   -2.2779   61.0896 C.2     1  ZINC001070580102    0.6000
      6 O6        -11.2914   -2.7512   60.8106 O.2     1  ZINC001070580102   -0.5300
      7 N7         -9.0918   -2.7539   60.5004 N.am    1  ZINC001070580102   -0.7200
      8 C8         -9.1869   -3.8428   59.5250 C.3     1  ZINC001070580102    0.2000
      9 C9         -9.9806   -3.3796   58.3306 C.2     1  ZINC001070580102    0.2600
     10 N10       -10.7489   -4.1281   57.5814 N.2     1  ZINC001070580102   -0.5100
     11 C11       -11.2959   -3.3904   56.6161 C.2     1  ZINC001070580102    0.2300
     12 C12       -12.2399   -3.8962   55.5559 C.3     1  ZINC001070580102    0.1400
     13 H13       -12.2165   -4.9858   55.5375 H       1  ZINC001070580102    0.0800
     14 C14       -11.8131   -3.3526   54.1898 C.3     1  ZINC001070580102    0.0800
     15 O15       -12.7547   -3.7739   53.1993 O.3     1  ZINC001070580102   -0.3800
     16 C16       -14.0942   -3.3451   53.4589 C.3     1  ZINC001070580102    0.0600
     17 C17       -14.5441   -3.8886   54.8176 C.3     1  ZINC001070580102    0.0200
     18 N18       -13.6048   -3.4396   55.8556 N.3     1  ZINC001070580102   -0.5200
     19 C19       -14.0332   -3.8938   57.1853 C.3     1  ZINC001070580102    0.0600
     20 C20       -14.6550   -2.7225   57.9485 C.3     1  ZINC001070580102    0.0800
     21 O21       -16.0243   -3.0142   58.2353 O.3     1  ZINC001070580102   -0.5700
     22 N22       -10.8815   -2.1567   56.7382 N.2     1  ZINC001070580102   -0.2700
     23 N23       -10.0274   -2.1240   57.8527 N.pl3   1  ZINC001070580102   -0.4700
     24 C24       -11.1074   -0.3396   62.4665 C.2     1  ZINC001070580102    0.0900
     25 C25       -12.5288   -0.3597   61.9661 C.3     1  ZINC001070580102   -0.0900
     26 O26       -10.6104    0.5043   63.3759 O.3     1  ZINC001070580102   -0.1700
     27 H27        -9.0099    1.7973   65.0449 H       1  ZINC001070580102    0.0800
     28 H28        -8.0369    0.3304   65.3089 H       1  ZINC001070580102    0.0900
     29 H29        -7.6000    1.4665   64.0102 H       1  ZINC001070580102    0.0900
     30 H30        -7.9358   -1.2134   62.7857 H       1  ZINC001070580102    0.1500
     31 H31        -8.2266   -2.3756   60.7221 H       1  ZINC001070580102    0.4000
     32 H32        -8.1859   -4.1331   59.2057 H       1  ZINC001070580102    0.1000
     33 H33        -9.6846   -4.6979   59.9824 H       1  ZINC001070580102    0.1100
     34 H34       -11.7841   -2.2636   54.2244 H       1  ZINC001070580102    0.0700
     35 H35       -10.8242   -3.7359   53.9383 H       1  ZINC001070580102    0.1000
     36 H36       -14.1314   -2.2558   53.4722 H       1  ZINC001070580102    0.0600
     37 H37       -14.7550   -3.7230   52.6788 H       1  ZINC001070580102    0.1000
     38 H38       -15.5432   -3.5172   55.0454 H       1  ZINC001070580102    0.1200
     39 H39       -14.5582   -4.9781   54.7871 H       1  ZINC001070580102    0.0400
     40 H40       -14.7703   -4.6894   57.0775 H       1  ZINC001070580102    0.0500
     41 H41       -13.1709   -4.2695   57.7361 H       1  ZINC001070580102    0.0800
     42 H42       -14.1133   -2.5683   58.8816 H       1  ZINC001070580102    0.0500
     43 H43       -14.5955   -1.8200   57.3402 H       1  ZINC001070580102    0.0600
     44 H44       -16.5524   -3.2301   57.4544 H       1  ZINC001070580102    0.3800
     45 H45        -9.5593   -1.3504   58.2038 H       1  ZINC001070580102    0.4400
     46 H46       -13.1268   -1.0171   62.5971 H       1  ZINC001070580102    0.0900
     47 H47       -12.9401    0.6492   62.0000 H       1  ZINC001070580102    0.0800
     48 H48       -12.5475   -0.7253   60.9395 H       1  ZINC001070580102    0.1100
@<TRIPOS>BOND
     1     1     2    1
     2     1    27    1
     3     1    28    1
     4     1    29    1
     5     2    26    1
     6     2     3    2
     7     3     4    1
     8     3    30    1
     9     4     5    1
    10     4    24    2
    11     5     6    2
    12     5     7   am
    13     7     8    1
    14     7    31    1
    15     8     9    1
    16     8    32    1
    17     8    33    1
    18     9    23    1
    19     9    10    2
    20    10    11    1
    21    11    12    1
    22    11    22    2
    23    12    13    1
    24    12    18    1
    25    12    14    1
    26    14    15    1
    27    14    34    1
    28    14    35    1
    29    15    16    1
    30    16    17    1
    31    16    36    1
    32    16    37    1
    33    17    18    1
    34    17    38    1
    35    17    39    1
    36    18    19    1
    37    19    20    1
    38    19    40    1
    39    19    41    1
    40    20    21    1
    41    20    42    1
    42    20    43    1
    43    21    44    1
    44    22    23    1
    45    23    45    1
    46    24    25    1
    47    24    26    1
    48    25    46    1
    49    25    47    1
    50    25    48    1
@<TRIPOS>SUBSTRUCTURE
     1 ZINC001070580102        1 TEMP              0 ****  ****    0 ROOT


##########                                Name:    ZINC000066361645
##########                DOCK_Rotatable_Bonds:                   8
##########                         Heavy_Atoms:                  27
##########                    Molecular_Weight:             392.519
##########                DOCK_Rotatable_Bonds:                   8
##########                       Formal_Charge:           0.0100004
##########                     HBond_Acceptors:                   7
##########                        HBond_Donors:                   2
##########                         Heavy_Atoms:                  27
##########                          Grid_Score:          -36.098984
##########                     Grid_vdw_energy:          -34.703133
##########                      Grid_es_energy:           -1.395853
##########           Internal_energy_repulsive:            8.234372

@<TRIPOS>MOLECULE
ZINC000066361645
 55 57 1 0 0
SMALL
USER_CHARGES


@<TRIPOS>ATOM
      1 C1        -14.2142   -5.4624   56.4312 C.3     1  ZINC000066361645   -0.1400
      2 S2        -13.0687   -4.7450   55.2214 S.3     1  ZINC000066361645   -0.1100
      3 C3        -11.9626   -3.8127   56.2272 C.ar    1  ZINC000066361645   -0.1200
      4 C4        -11.4010   -4.3863   57.3580 C.ar    1  ZINC000066361645   -0.1100
      5 C5        -10.5293   -3.6534   58.1503 C.ar    1  ZINC000066361645    0.0500
      6 C6        -10.2166   -2.3430   57.8101 C.ar    1  ZINC000066361645    0.0700
      7 C7        -10.7787   -1.7666   56.6804 C.ar    1  ZINC000066361645   -0.1100
      8 C8        -11.6460   -2.4985   55.8845 C.ar    1  ZINC000066361645    0.1800
      9 N9        -12.2133   -1.9143   54.7420 N.am    1  ZINC000066361645   -0.6600
     10 C10       -11.6151   -2.0596   53.5430 C.2     1  ZINC000066361645    0.5100
     11 O11       -10.5861   -2.6955   53.4517 O.2     1  ZINC000066361645   -0.5000
     12 C12       -12.2245   -1.4321   52.3159 C.3     1  ZINC000066361645   -0.1500
     13 C13       -12.3180    0.0825   52.5105 C.3     1  ZINC000066361645    0.1600
     14 H14       -12.3415    0.3112   53.5759 H       1  ZINC000066361645    0.1000
     15 C15       -13.5952    0.6039   51.8487 C.3     1  ZINC000066361645   -0.1600
     16 N16       -11.1531    0.7263   51.8984 N.am    1  ZINC000066361645   -0.7200
     17 C17       -10.1876    1.2535   52.6772 C.2     1  ZINC000066361645    0.5300
     18 O18       -10.2827    1.1937   53.8848 O.2     1  ZINC000066361645   -0.5400
     19 C19        -8.9902    1.9173   52.0475 C.3     1  ZINC000066361645   -0.1100
     20 C20        -8.4867    3.0351   52.9627 C.3     1  ZINC000066361645   -0.1100
     21 C21        -7.2710    3.7090   52.3234 C.3     1  ZINC000066361645   -0.1200
     22 C22        -6.1612    2.6750   52.1233 C.3     1  ZINC000066361645   -0.1200
     23 C23        -6.6647    1.5571   51.2079 C.3     1  ZINC000066361645   -0.1200
     24 C24        -7.8804    0.8832   51.8473 C.3     1  ZINC000066361645   -0.1000
     25 O25        -9.3565   -1.6116   58.5728 O.3     1  ZINC000066361645   -0.3000
     26 C26        -9.1032   -2.0916   59.8975 C.3     1  ZINC000066361645    0.0200
     27 C27        -8.8344   -3.6005   59.8186 C.3     1  ZINC000066361645    0.0200
     28 O28        -9.9906   -4.2327   59.2590 O.3     1  ZINC000066361645   -0.3100
     29 H29       -13.6589   -6.0857   57.1321 H       1  ZINC000066361645    0.0900
     30 H30       -14.7161   -4.6623   56.9753 H       1  ZINC000066361645    0.0900
     31 H31       -14.9560   -6.0704   55.9132 H       1  ZINC000066361645    0.1100
     32 H32       -11.6427   -5.4052   57.6224 H       1  ZINC000066361645    0.1400
     33 H33       -10.5372   -0.7472   56.4183 H       1  ZINC000066361645    0.1600
     34 H34       -13.0361   -1.4058   54.8150 H       1  ZINC000066361645    0.4100
     35 H35       -11.6007   -1.6492   51.4489 H       1  ZINC000066361645    0.1000
     36 H36       -13.2226   -1.8402   52.1567 H       1  ZINC000066361645    0.1200
     37 H37       -13.5717    0.3752   50.7832 H       1  ZINC000066361645    0.0600
     38 H38       -14.4619    0.1249   52.3041 H       1  ZINC000066361645    0.0700
     39 H39       -13.6618    1.6830   51.9873 H       1  ZINC000066361645    0.0700
     40 H40       -11.0765    0.7731   50.9325 H       1  ZINC000066361645    0.4000
     41 H41        -9.2734    2.3377   51.0825 H       1  ZINC000066361645    0.1000
     42 H42        -9.2772    3.7718   53.1054 H       1  ZINC000066361645    0.0600
     43 H43        -8.2034    2.6147   53.9277 H       1  ZINC000066361645    0.0700
     44 H44        -7.5542    4.1294   51.3584 H       1  ZINC000066361645    0.0600
     45 H45        -6.9121    4.5054   52.9754 H       1  ZINC000066361645    0.0700
     46 H46        -5.2951    3.1551   51.6677 H       1  ZINC000066361645    0.0600
     47 H47        -5.8779    2.2546   53.0881 H       1  ZINC000066361645    0.0600
     48 H48        -6.9480    1.9776   50.2430 H       1  ZINC000066361645    0.0600
     49 H49        -5.8741    0.8204   51.0653 H       1  ZINC000066361645    0.0700
     50 H50        -7.5972    0.4628   52.8123 H       1  ZINC000066361645    0.0700
     51 H51        -8.2392    0.0869   51.1952 H       1  ZINC000066361645    0.0700
     52 H52        -8.2321   -1.5843   60.3121 H       1  ZINC000066361645    0.1300
     53 H53        -9.9724   -1.9055   60.5284 H       1  ZINC000066361645    0.0800
     54 H54        -7.9693   -3.7869   59.1823 H       1  ZINC000066361645    0.0800
     55 H55        -8.6480   -3.9935   60.8181 H       1  ZINC000066361645    0.1200
@<TRIPOS>BOND
     1     1     2    1
     2     1    29    1
     3     1    30    1
     4     1    31    1
     5     2     3    1
     6     3     8   ar
     7     3     4   ar
     8     4     5   ar
     9     4    32    1
    10     5    28    1
    11     5     6   ar
    12     6     7   ar
    13     6    25    1
    14     7     8   ar
    15     7    33    1
    16     8     9    1
    17     9    10   am
    18     9    34    1
    19    10    11    2
    20    10    12    1
    21    12    13    1
    22    12    35    1
    23    12    36    1
    24    13    14    1
    25    13    15    1
    26    13    16    1
    27    15    37    1
    28    15    38    1
    29    15    39    1
    30    16    17   am
    31    16    40    1
    32    17    18    2
    33    17    19    1
    34    19    24    1
    35    19    20    1
    36    19    41    1
    37    20    21    1
    38    20    42    1
    39    20    43    1
    40    21    22    1
    41    21    44    1
    42    21    45    1
    43    22    23    1
    44    22    46    1
    45    22    47    1
    46    23    24    1
    47    23    48    1
    48    23    49    1
    49    24    50    1
    50    24    51    1
    51    25    26    1
    52    26    27    1
    53    26    52    1
    54    26    53    1
    55    27    28    1
    56    27    54    1
    57    27    55    1
@<TRIPOS>SUBSTRUCTURE
     1 ZINC000066361645        1 TEMP              0 ****  ****    0 ROOT


##########                                Name:    ZINC000859496582
##########                DOCK_Rotatable_Bonds:                  10
##########                         Heavy_Atoms:                  26
##########                    Molecular_Weight:             361.438
##########                DOCK_Rotatable_Bonds:                  10
##########                       Formal_Charge:           0.0100006
##########                     HBond_Acceptors:                   6
##########                        HBond_Donors:                   0
##########                         Heavy_Atoms:                  26
##########                          Grid_Score:          -36.013454
##########                     Grid_vdw_energy:          -34.935726
##########                      Grid_es_energy:           -1.077730
##########           Internal_energy_repulsive:           10.484679

@<TRIPOS>MOLECULE
ZINC000859496582
 53 54 1 0 0
SMALL
USER_CHARGES


@<TRIPOS>ATOM
      1 C1         -3.3985    2.0958   57.6061 C.3     1  ZINC000859496582    0.0300
      2 O2         -4.7031    1.8784   57.0069 O.3     1  ZINC000859496582   -0.3600
      3 C3         -5.5058    2.9479   56.8899 C.2     1  ZINC000859496582    0.4600
      4 O4         -5.1311    4.0296   57.2764 O.2     1  ZINC000859496582   -0.5100
      5 C5         -6.8743    2.7995   56.2767 C.3     1  ZINC000859496582   -0.1100
      6 C6         -7.8986    2.5169   57.3776 C.3     1  ZINC000859496582   -0.1100
      7 C7         -9.3108    2.6082   56.7960 C.3     1  ZINC000859496582   -0.1200
      8 C8        -10.3300    2.2152   57.8673 C.3     1  ZINC000859496582    0.0700
      9 O9        -10.3284    0.7724   58.0306 O.3     1  ZINC000859496582   -0.3500
     10 C10       -10.7716    0.2914   59.2028 C.2     1  ZINC000859496582    0.4700
     11 O11       -11.3055    1.0302   59.9959 O.2     1  ZINC000859496582   -0.5000
     12 C12       -10.6031   -1.1701   59.5296 C.3     1  ZINC000859496582   -0.1000
     13 H13       -11.5419   -1.5672   59.9156 H       1  ZINC000859496582    0.1200
     14 C14        -9.5067   -1.3345   60.5846 C.3     1  ZINC000859496582   -0.1100
     15 C15        -9.3574   -2.8153   60.9412 C.3     1  ZINC000859496582   -0.1300
     16 C16        -8.9463   -3.5986   59.6905 C.3     1  ZINC000859496582    0.1100
     17 N17        -9.9197   -3.3301   58.6232 N.am    1  ZINC000859496582   -0.6100
     18 C18       -10.5380   -4.3445   57.9866 C.2     1  ZINC000859496582    0.5700
     19 O19       -10.2923   -5.4946   58.2939 O.2     1  ZINC000859496582   -0.5300
     20 C20       -11.5151   -4.0583   56.9146 C.ar    1  ZINC000859496582   -0.1400
     21 C21       -12.8803   -4.0204   57.2024 C.ar    1  ZINC000859496582   -0.0900
     22 C22       -13.7868   -3.7524   56.1976 C.ar    1  ZINC000859496582   -0.1200
     23 C23       -13.3452   -3.5218   54.9067 C.ar    1  ZINC000859496582   -0.0600
     24 C24       -14.3411   -3.2301   53.8141 C.3     1  ZINC000859496582   -0.1200
     25 C25       -11.9932   -3.5574   54.6149 C.ar    1  ZINC000859496582   -0.1200
     26 C26       -11.0759   -3.8191   55.6115 C.ar    1  ZINC000859496582   -0.0600
     27 C27       -10.2069   -1.9349   58.2628 C.3     1  ZINC000859496582    0.1100
     28 H28        -3.5231    2.4805   58.6183 H       1  ZINC000859496582    0.0600
     29 H29        -2.8528    1.1529   57.6403 H       1  ZINC000859496582    0.1000
     30 H30        -2.8403    2.8171   57.0093 H       1  ZINC000859496582    0.0600
     31 H31        -7.1423    3.7203   55.7588 H       1  ZINC000859496582    0.1100
     32 H32        -6.8666    1.9724   55.5666 H       1  ZINC000859496582    0.1100
     33 H33        -7.7347    1.5166   57.7784 H       1  ZINC000859496582    0.0800
     34 H34        -7.7862    3.2509   58.1756 H       1  ZINC000859496582    0.0800
     35 H35        -9.5036    3.6298   56.4685 H       1  ZINC000859496582    0.0800
     36 H36        -9.3980    1.9316   55.9458 H       1  ZINC000859496582    0.0800
     37 H37       -10.0642    2.6882   58.8127 H       1  ZINC000859496582    0.0700
     38 H38       -11.3231    2.5453   57.5624 H       1  ZINC000859496582    0.0700
     39 H39        -8.5628   -0.9593   60.1891 H       1  ZINC000859496582    0.0800
     40 H40        -9.7752   -0.7711   61.4782 H       1  ZINC000859496582    0.0800
     41 H41        -8.5928   -2.9291   61.7096 H       1  ZINC000859496582    0.0900
     42 H42       -10.3079   -3.1974   61.3137 H       1  ZINC000859496582    0.0700
     43 H43        -7.9546   -3.2800   59.3695 H       1  ZINC000859496582    0.0700
     44 H44        -8.9349   -4.6653   59.9148 H       1  ZINC000859496582    0.1000
     45 H45       -13.2264   -4.2009   58.2094 H       1  ZINC000859496582    0.1300
     46 H46       -14.8435   -3.7228   56.4189 H       1  ZINC000859496582    0.1300
     47 H47       -14.5104   -2.1551   53.7543 H       1  ZINC000859496582    0.0800
     48 H48       -13.9516   -3.5900   52.8618 H       1  ZINC000859496582    0.0700
     49 H49       -15.2817   -3.7343   54.0357 H       1  ZINC000859496582    0.0700
     50 H50       -11.6550   -3.3762   53.6053 H       1  ZINC000859496582    0.1300
     51 H51       -10.0208   -3.8463   55.3824 H       1  ZINC000859496582    0.1300
     52 H52       -11.0267   -1.9043   57.5450 H       1  ZINC000859496582    0.1100
     53 H53        -9.3181   -1.4801   57.8252 H       1  ZINC000859496582    0.0800
@<TRIPOS>BOND
     1     1     2    1
     2     1    28    1
     3     1    29    1
     4     1    30    1
     5     2     3    1
     6     3     4    2
     7     3     5    1
     8     5     6    1
     9     5    31    1
    10     5    32    1
    11     6     7    1
    12     6    33    1
    13     6    34    1
    14     7     8    1
    15     7    35    1
    16     7    36    1
    17     8     9    1
    18     8    37    1
    19     8    38    1
    20     9    10    1
    21    10    11    2
    22    10    12    1
    23    12    13    1
    24    12    27    1
    25    12    14    1
    26    14    15    1
    27    14    39    1
    28    14    40    1
    29    15    16    1
    30    15    41    1
    31    15    42    1
    32    16    17    1
    33    16    43    1
    34    16    44    1
    35    17    18   am
    36    17    27    1
    37    18    19    2
    38    18    20    1
    39    20    26   ar
    40    20    21   ar
    41    21    22   ar
    42    21    45    1
    43    22    23   ar
    44    22    46    1
    45    23    24    1
    46    23    25   ar
    47    24    47    1
    48    24    48    1
    49    24    49    1
    50    25    26   ar
    51    25    50    1
    52    26    51    1
    53    27    52    1
    54    27    53    1
@<TRIPOS>SUBSTRUCTURE
     1 ZINC000859496582        1 TEMP              0 ****  ****    0 ROOT


##########                                Name:    ZINC000851838607
##########                DOCK_Rotatable_Bonds:                  12
##########                         Heavy_Atoms:                  23
##########                    Molecular_Weight:             352.495
##########                DOCK_Rotatable_Bonds:                  12
##########                       Formal_Charge:          0.00999896
##########                     HBond_Acceptors:                   8
##########                        HBond_Donors:                   2
##########                         Heavy_Atoms:                  23
##########                          Grid_Score:          -35.994728
##########                     Grid_vdw_energy:          -35.647228
##########                      Grid_es_energy:           -0.347500
##########           Internal_energy_repulsive:           25.434200

@<TRIPOS>MOLECULE
ZINC000851838607
 55 54 1 0 0
SMALL
USER_CHARGES


@<TRIPOS>ATOM
      1 C1         -7.9566    1.6075   52.1118 C.3     1  ZINC000851838607    0.0300
      2 O2         -9.1304    0.7926   52.1211 O.3     1  ZINC000851838607   -0.3800
      3 C3         -9.5437    0.3835   53.4265 C.3     1  ZINC000851838607    0.0800
      4 C4        -10.8105   -0.4674   53.3170 C.3     1  ZINC000851838607   -0.6000
      5 H5        -11.1486   -0.7458   54.3152 H       1  ZINC000851838607    0.1400
      6 C6        -11.9058    0.3367   52.6135 C.3     1  ZINC000851838607   -0.1400
      7 S7        -10.4515   -1.9662   52.3603 S.o2    1  ZINC000851838607    2.6200
      8 O8        -11.4995   -2.2322   51.4384 O.2     1  ZINC000851838607   -0.9400
      9 O9         -9.0918   -1.9805   51.9478 O.2     1  ZINC000851838607   -0.9500
     10 N10       -10.5564   -3.1961   53.4642 N.am    1  ZINC000851838607   -1.1200
     11 C11       -11.8121   -3.4321   54.1808 C.3     1  ZINC000851838607    0.1100
     12 C12       -11.7111   -2.8502   55.5921 C.3     1  ZINC000851838607   -0.1400
     13 C13       -12.2452   -3.8673   56.6026 C.3     1  ZINC000851838607    0.1700
     14 H14       -11.7085   -4.8090   56.4885 H       1  ZINC000851838607    0.1000
     15 N15       -12.0492   -3.3550   57.9611 N.am    1  ZINC000851838607   -0.7100
     16 C16       -10.9835   -3.7526   58.6840 C.2     1  ZINC000851838607    0.6500
     17 O17       -10.1844   -4.5349   58.2085 O.2     1  ZINC000851838607   -0.5600
     18 O18       -10.8042   -3.2831   59.9330 O.3     1  ZINC000851838607   -0.3700
     19 C19       -10.1905   -1.9737   60.0633 C.3     1  ZINC000851838607    0.1400
     20 C20        -9.1350   -2.0130   61.1703 C.3     1  ZINC000851838607   -0.1800
     21 C21        -9.5273   -1.5873   58.7398 C.3     1  ZINC000851838607   -0.1400
     22 C22       -11.2624   -0.9409   60.4172 C.3     1  ZINC000851838607   -0.1800
     23 C23       -13.7373   -4.0973   56.3547 C.3     1  ZINC000851838607   -0.1100
     24 C24       -14.0232   -5.6000   56.3222 C.3     1  ZINC000851838607   -0.1500
     25 C25       -14.5471   -3.4483   57.4790 C.3     1  ZINC000851838607   -0.1400
     26 H26        -8.1385    2.5133   52.6903 H       1  ZINC000851838607    0.0400
     27 H27        -7.1272    1.0550   52.5534 H       1  ZINC000851838607    0.0500
     28 H28        -7.7087    1.8759   51.0849 H       1  ZINC000851838607    0.0900
     29 H29        -8.7512   -0.2029   53.8912 H       1  ZINC000851838607    0.0700
     30 H30        -9.7489    1.2641   54.0352 H       1  ZINC000851838607    0.0600
     31 H31       -12.7772   -0.2984   52.4541 H       1  ZINC000851838607    0.0700
     32 H32       -12.1855    1.1888   53.2328 H       1  ZINC000851838607    0.0900
     33 H33       -11.5347    0.6923   51.6523 H       1  ZINC000851838607    0.0700
     34 H34        -9.7863   -3.7603   53.6363 H       1  ZINC000851838607    0.4200
     35 H35       -12.6312   -2.9503   53.6468 H       1  ZINC000851838607    0.0700
     36 H36       -11.9994   -4.5041   54.2423 H       1  ZINC000851838607    0.0800
     37 H37       -10.6689   -2.6256   55.8188 H       1  ZINC000851838607    0.0800
     38 H38       -12.3009   -1.9354   55.6511 H       1  ZINC000851838607    0.1000
     39 H39       -12.6864   -2.7297   58.3403 H       1  ZINC000851838607    0.4100
     40 H40        -8.3713   -2.7487   60.9182 H       1  ZINC000851838607    0.0600
     41 H41        -8.6743   -1.0300   61.2680 H       1  ZINC000851838607    0.0700
     42 H42        -9.6074   -2.2882   62.1132 H       1  ZINC000851838607    0.0900
     43 H43       -10.2792   -1.5593   57.9511 H       1  ZINC000851838607    0.0700
     44 H44        -9.0665   -0.6043   58.8375 H       1  ZINC000851838607    0.0800
     45 H45        -8.7636   -2.3230   58.4877 H       1  ZINC000851838607    0.0700
     46 H46       -11.7349   -1.2161   61.3601 H       1  ZINC000851838607    0.0900
     47 H47       -10.8017    0.0421   60.5150 H       1  ZINC000851838607    0.0700
     48 H48       -12.0144   -0.9129   59.6285 H       1  ZINC000851838607    0.0600
     49 H49       -14.0198   -3.6530   55.4003 H       1  ZINC000851838607    0.0700
     50 H50       -13.7407   -6.0443   57.2765 H       1  ZINC000851838607    0.0600
     51 H51       -15.0863   -5.7638   56.1456 H       1  ZINC000851838607    0.0600
     52 H52       -13.4463   -6.0623   55.5212 H       1  ZINC000851838607    0.0600
     53 H53       -14.3434   -2.3778   57.5022 H       1  ZINC000851838607    0.0500
     54 H54       -15.6101   -3.6122   57.3024 H       1  ZINC000851838607    0.0500
     55 H55       -14.2647   -3.8927   58.4334 H       1  ZINC000851838607    0.0700
@<TRIPOS>BOND
     1     1     2    1
     2     1    26    1
     3     1    27    1
     4     1    28    1
     5     2     3    1
     6     3     4    1
     7     3    29    1
     8     3    30    1
     9     4     5    1
    10     4     6    1
    11     4     7    1
    12     6    31    1
    13     6    32    1
    14     6    33    1
    15     7     8    2
    16     7     9    2
    17     7    10   am
    18    10    11    1
    19    10    34    1
    20    11    12    1
    21    11    35    1
    22    11    36    1
    23    12    13    1
    24    12    37    1
    25    12    38    1
    26    13    14    1
    27    13    15    1
    28    13    23    1
    29    15    16   am
    30    15    39    1
    31    16    17    2
    32    16    18    1
    33    18    19    1
    34    19    20    1
    35    19    21    1
    36    19    22    1
    37    20    40    1
    38    20    41    1
    39    20    42    1
    40    21    43    1
    41    21    44    1
    42    21    45    1
    43    22    46    1
    44    22    47    1
    45    22    48    1
    46    23    24    1
    47    23    25    1
    48    23    49    1
    49    24    50    1
    50    24    51    1
    51    24    52    1
    52    25    53    1
    53    25    54    1
    54    25    55    1
@<TRIPOS>SUBSTRUCTURE
     1 ZINC000851838607        1 TEMP              0 ****  ****    0 ROOT


##########                                Name:    ZINC000171059239
##########                DOCK_Rotatable_Bonds:                   8
##########                         Heavy_Atoms:                  25
##########                    Molecular_Weight:              333.39
##########                DOCK_Rotatable_Bonds:                   8
##########                       Formal_Charge:         1.10269e-06
##########                     HBond_Acceptors:                   5
##########                        HBond_Donors:                   4
##########                         Heavy_Atoms:                  25
##########                          Grid_Score:          -35.959946
##########                     Grid_vdw_energy:          -34.336571
##########                      Grid_es_energy:           -1.623375
##########           Internal_energy_repulsive:            7.254339

@<TRIPOS>MOLECULE
ZINC000171059239
 44 46 1 0 0
SMALL
USER_CHARGES


@<TRIPOS>ATOM
      1 N1          1.4807   -0.4907   39.9307 N.am    1  ZINC000171059239   -0.8500
      2 C2          0.3308   -0.4221   40.6302 C.2     1  ZINC000171059239    0.5600
      3 O3         -0.7357   -0.5425   40.0597 O.2     1  ZINC000171059239   -0.5400
      4 C4          0.3666   -0.2003   42.0915 C.ar    1  ZINC000171059239   -0.1400
      5 C5          1.5647    0.1439   42.7190 C.ar    1  ZINC000171059239   -0.0900
      6 C6          1.5912    0.3500   44.0830 C.ar    1  ZINC000171059239   -0.1200
      7 C7          0.4336    0.2155   44.8285 C.ar    1  ZINC000171059239   -0.0800
      8 C8         -0.7576   -0.1262   44.2126 C.ar    1  ZINC000171059239   -0.0900
      9 C9         -2.0135   -0.2708   45.0327 C.3     1  ZINC000171059239   -0.0900
     10 C10        -2.2334    0.9991   45.8572 C.3     1  ZINC000171059239    0.1400
     11 N11        -2.2477    0.6596   47.2823 N.am    1  ZINC000171059239   -0.7400
     12 C12        -2.6238    1.5813   48.1908 C.2     1  ZINC000171059239    0.7000
     13 O13        -2.9526    2.6941   47.8276 O.2     1  ZINC000171059239   -0.5700
     14 N14        -2.6354    1.2696   49.5021 N.am    1  ZINC000171059239   -0.6800
     15 C15        -3.0250    2.2245   50.4432 C.ar    1  ZINC000171059239    0.1700
     16 C16        -4.2768    2.1209   51.0861 C.ar    1  ZINC000171059239   -0.0600
     17 C17        -5.1571    1.0655   50.8005 C.ar    1  ZINC000171059239   -0.1100
     18 C18        -6.3571    0.9969   51.4401 C.ar    1  ZINC000171059239   -0.1100
     19 C19        -6.7265    1.9606   52.3763 C.ar    1  ZINC000171059239   -0.1200
     20 C20        -5.8984    2.9977   52.6782 C.ar    1  ZINC000171059239   -0.1000
     21 C21        -4.6512    3.1011   52.0381 C.ar    1  ZINC000171059239   -0.0400
     22 C22        -3.7708    4.1579   52.3254 C.ar    1  ZINC000171059239   -0.1200
     23 C23        -2.5686    4.2329   51.6904 C.ar    1  ZINC000171059239   -0.0900
     24 C24        -2.1880    3.2735   50.7570 C.ar    1  ZINC000171059239   -0.1200
     25 C25        -0.7990   -0.3287   42.8488 C.ar    1  ZINC000171059239   -0.0500
     26 H26         1.4573   -0.6374   38.9721 H       1  ZINC000171059239    0.4100
     27 H27         2.3317   -0.3895   40.3852 H       1  ZINC000171059239    0.4000
     28 H28         2.4692    0.2484   42.1381 H       1  ZINC000171059239    0.1300
     29 H29         2.5177    0.6164   44.5699 H       1  ZINC000171059239    0.1300
     30 H30         0.4597    0.3775   45.8959 H       1  ZINC000171059239    0.1300
     31 H31        -2.8648   -0.4255   44.3695 H       1  ZINC000171059239    0.0800
     32 H32        -1.9142   -1.1257   45.7016 H       1  ZINC000171059239    0.0800
     33 H33        -1.4264    1.7047   45.6599 H       1  ZINC000171059239    0.0700
     34 H34        -3.1864    1.4506   45.5817 H       1  ZINC000171059239    0.0700
     35 H35        -1.9866   -0.2286   47.5720 H       1  ZINC000171059239    0.4000
     36 H36        -2.3731    0.3818   49.7918 H       1  ZINC000171059239    0.4100
     37 H37        -4.8841    0.3119   50.0766 H       1  ZINC000171059239    0.1200
     38 H38        -7.0324    0.1837   51.2186 H       1  ZINC000171059239    0.1200
     39 H39        -7.6843    1.8837   52.8693 H       1  ZINC000171059239    0.1200
     40 H40        -6.1982    3.7377   53.4056 H       1  ZINC000171059239    0.1300
     41 H41        -4.0475    4.9102   53.0491 H       1  ZINC000171059239    0.1300
     42 H42        -1.8981    5.0485   51.9173 H       1  ZINC000171059239    0.1300
     43 H43        -1.2288    3.3558   50.2675 H       1  ZINC000171059239    0.1400
     44 H44        -1.7294   -0.5950   42.3693 H       1  ZINC000171059239    0.1400
@<TRIPOS>BOND
     1     1     2   am
     2     1    26    1
     3     1    27    1
     4     2     3    2
     5     2     4    1
     6     4    25   ar
     7     4     5   ar
     8     5     6   ar
     9     5    28    1
    10     6     7   ar
    11     6    29    1
    12     7     8   ar
    13     7    30    1
    14     8     9    1
    15     8    25   ar
    16     9    10    1
    17     9    31    1
    18     9    32    1
    19    10    11    1
    20    10    33    1
    21    10    34    1
    22    11    12   am
    23    11    35    1
    24    12    13    2
    25    12    14   am
    26    14    15    1
    27    14    36    1
    28    15    24   ar
    29    15    16   ar
    30    16    21   ar
    31    16    17   ar
    32    17    18   ar
    33    17    37    1
    34    18    19   ar
    35    18    38    1
    36    19    20   ar
    37    19    39    1
    38    20    21   ar
    39    20    40    1
    40    21    22   ar
    41    22    23   ar
    42    22    41    1
    43    23    24   ar
    44    23    42    1
    45    24    43    1
    46    25    44    1
@<TRIPOS>SUBSTRUCTURE
     1 ZINC000171059239        1 TEMP              0 ****  ****    0 ROOT


##########                                Name:    ZINC000957079511
##########                DOCK_Rotatable_Bonds:                   8
##########                         Heavy_Atoms:                  25
##########                    Molecular_Weight:             362.453
##########                DOCK_Rotatable_Bonds:                   8
##########                       Formal_Charge:        -4.32134e-07
##########                     HBond_Acceptors:                   8
##########                        HBond_Donors:                   2
##########                         Heavy_Atoms:                  25
##########                          Grid_Score:          -35.946308
##########                     Grid_vdw_energy:          -33.594662
##########                      Grid_es_energy:           -2.351645
##########           Internal_energy_repulsive:           11.551795

@<TRIPOS>MOLECULE
ZINC000957079511
 47 49 1 0 0
SMALL
USER_CHARGES


@<TRIPOS>ATOM
      1 C1        -11.1612    1.7352   66.7413 C.3     1  ZINC000957079511   -0.0700
      2 C2         -9.8873    0.9311   66.6982 C.2     1  ZINC000957079511    0.0300
      3 C3         -9.0185    0.8795   65.6706 C.2     1  ZINC000957079511   -0.0200
      4 C4         -9.1361    1.6092   64.3573 C.3     1  ZINC000957079511   -0.0600
      5 C5         -9.9764    0.7977   63.4052 C.2     1  ZINC000957079511    0.5100
      6 O6        -11.1862    0.8354   63.4808 O.2     1  ZINC000957079511   -0.5200
      7 N7         -9.3833    0.0298   62.4697 N.am    1  ZINC000957079511   -0.7200
      8 C8        -10.2001   -0.7605   61.5453 C.3     1  ZINC000957079511    0.1400
      9 H9        -11.1281   -1.0778   62.0208 H       1  ZINC000957079511    0.1100
     10 C10        -9.4079   -1.9777   61.0061 C.3     1  ZINC000957079511    0.0800
     11 N11       -10.0424   -2.2988   59.7147 N.am    1  ZINC000957079511   -0.6200
     12 C12       -10.0220   -3.5017   59.1072 C.2     1  ZINC000957079511    0.5400
     13 O13        -9.4434   -4.4331   59.6255 O.2     1  ZINC000957079511   -0.5100
     14 C14       -10.7179   -3.6894   57.7837 C.3     1  ZINC000957079511    0.0500
     15 O15       -12.0330   -4.2028   58.0057 O.3     1  ZINC000957079511   -0.2800
     16 C16       -12.7610   -4.5360   56.9036 C.2     1  ZINC000957079511    0.1200
     17 C17       -14.0035   -5.0214   56.9816 C.2     1  ZINC000957079511   -0.3300
     18 S18       -14.6185   -5.3323   55.3635 S.3     1  ZINC000957079511    0.1300
     19 C19       -13.1128   -4.7703   54.6493 C.2     1  ZINC000957079511   -0.1800
     20 C20       -12.2720   -4.3922   55.6140 C.2     1  ZINC000957079511   -0.1400
     21 C21       -10.7019   -1.0899   59.1998 C.3     1  ZINC000957079511    0.1100
     22 C22       -10.4854    0.0294   60.2407 C.3     1  ZINC000957079511   -0.1100
     23 H23        -9.6294    0.6476   59.9698 H       1  ZINC000957079511    0.0900
     24 C24       -11.7451    0.8857   60.3847 C.3     1  ZINC000957079511   -0.1400
     25 N25        -8.0077    0.0374   66.0484 N.pl3   1  ZINC000957079511   -0.5600
     26 C26        -8.2944   -0.3967   67.2947 C.2     1  ZINC000957079511    0.2000
     27 N27        -9.4174    0.1458   67.6788 N.2     1  ZINC000957079511   -0.4900
     28 H28       -10.9517    2.7265   67.1432 H       1  ZINC000957079511    0.0700
     29 H29       -11.5655    1.8298   65.7335 H       1  ZINC000957079511    0.0600
     30 H30       -11.8878    1.2310   67.3785 H       1  ZINC000957079511    0.0700
     31 H31        -9.6065    2.5788   64.5211 H       1  ZINC000957079511    0.1000
     32 H32        -8.1430    1.7544   63.9322 H       1  ZINC000957079511    0.1200
     33 H33        -8.4156    0.0005   62.4084 H       1  ZINC000957079511    0.4000
     34 H34        -8.3606   -1.7136   60.8589 H       1  ZINC000957079511    0.0800
     35 H35        -9.4947   -2.8207   61.6915 H       1  ZINC000957079511    0.0800
     36 H36       -10.7843   -2.7309   57.2691 H       1  ZINC000957079511    0.0900
     37 H37       -10.1521   -4.3920   57.1721 H       1  ZINC000957079511    0.0900
     38 H38       -14.5470   -5.1966   57.8983 H       1  ZINC000957079511    0.1700
     39 H39       -12.9023   -4.7330   53.5907 H       1  ZINC000957079511    0.1800
     40 H40       -11.2833   -4.0105   55.4065 H       1  ZINC000957079511    0.1500
     41 H41       -10.2568   -0.8020   58.2474 H       1  ZINC000957079511    0.0800
     42 H42       -11.7683   -1.2752   59.0721 H       1  ZINC000957079511    0.0800
     43 H43       -12.5814    0.2542   60.6845 H       1  ZINC000957079511    0.0600
     44 H44       -11.5788    1.6521   61.1417 H       1  ZINC000957079511    0.0600
     45 H45       -11.9724    1.3609   59.4304 H       1  ZINC000957079511    0.0700
     46 H46        -7.2307   -0.2028   65.5198 H       1  ZINC000957079511    0.4200
     47 H47        -7.6919   -1.0770   67.8784 H       1  ZINC000957079511    0.2100
@<TRIPOS>BOND
     1     1     2    1
     2     1    28    1
     3     1    29    1
     4     1    30    1
     5     2    27    1
     6     2     3    2
     7     3     4    1
     8     3    25    1
     9     4     5    1
    10     4    31    1
    11     4    32    1
    12     5     6    2
    13     5     7   am
    14     7     8    1
    15     7    33    1
    16     8     9    1
    17     8    22    1
    18     8    10    1
    19    10    11    1
    20    10    34    1
    21    10    35    1
    22    11    12   am
    23    11    21    1
    24    12    13    2
    25    12    14    1
    26    14    15    1
    27    14    36    1
    28    14    37    1
    29    15    16    1
    30    16    20    1
    31    16    17    2
    32    17    18    1
    33    17    38    1
    34    18    19    1
    35    19    20    2
    36    19    39    1
    37    20    40    1
    38    21    22    1
    39    21    41    1
    40    21    42    1
    41    22    23    1
    42    22    24    1
    43    24    43    1
    44    24    44    1
    45    24    45    1
    46    25    26    1
    47    25    46    1
    48    26    27    2
    49    26    47    1
@<TRIPOS>SUBSTRUCTURE
     1 ZINC000957079511        1 TEMP              0 ****  ****    0 ROOT


##########                                Name:    ZINC001207290212
##########                DOCK_Rotatable_Bonds:                   8
##########                         Heavy_Atoms:                  23
##########                    Molecular_Weight:             344.435
##########                DOCK_Rotatable_Bonds:                   8
##########                       Formal_Charge:               -0.03
##########                     HBond_Acceptors:                   9
##########                        HBond_Donors:                   2
##########                         Heavy_Atoms:                  23
##########                          Grid_Score:          -35.920971
##########                     Grid_vdw_energy:          -35.647537
##########                      Grid_es_energy:           -0.273435
##########           Internal_energy_repulsive:            5.824622

@<TRIPOS>MOLECULE
ZINC001207290212
 47 48 1 0 0
SMALL
USER_CHARGES


@<TRIPOS>ATOM
      1 C1         -9.3371   -0.3165   63.1163 C.3     1  ZINC001207290212   -0.1500
      2 C2         -8.9537   -1.3547   62.0598 C.3     1  ZINC001207290212   -0.6300
      3 S3         -9.8238   -0.9905   60.5104 S.o2    1  ZINC001207290212    2.6100
      4 O4        -11.2167   -1.2335   60.6516 O.2     1  ZINC001207290212   -0.9500
      5 O5         -9.3454    0.2214   59.9429 O.2     1  ZINC001207290212   -0.9500
      6 N6         -9.3087   -2.1639   59.4615 N.am    1  ZINC001207290212   -1.1100
      7 C7         -9.5470   -3.5764   59.7683 C.3     1  ZINC001207290212    0.0900
      8 C8        -10.5614   -4.1357   58.8044 C.2     1  ZINC001207290212    0.5100
      9 O9        -10.3418   -5.1826   58.2327 O.2     1  ZINC001207290212   -0.5300
     10 N10       -11.7126   -3.4726   58.5777 N.am    1  ZINC001207290212   -0.7200
     11 C11       -12.6996   -4.0172   57.6420 C.3     1  ZINC001207290212    0.1400
     12 H12       -12.8326   -5.0855   57.8127 H       1  ZINC001207290212    0.1000
     13 C13       -12.2583   -3.7591   56.1894 C.3     1  ZINC001207290212    0.0200
     14 N14       -13.2868   -2.8949   55.5706 N.3     1  ZINC001207290212   -0.5100
     15 C15       -13.4579   -3.2165   54.1475 C.3     1  ZINC001207290212    0.1300
     16 C16       -12.1728   -2.9378   53.4114 C.2     1  ZINC001207290212    0.0000
     17 C17       -11.4534   -3.8275   52.7076 C.2     1  ZINC001207290212   -0.0700
     18 O18       -10.3849   -3.1716   52.2139 O.3     1  ZINC001207290212   -0.2000
     19 C19       -10.4643   -1.8973   52.6197 C.2     1  ZINC001207290212    0.1900
     20 C20        -9.4733   -0.8094   52.2951 C.3     1  ZINC001207290212   -0.0600
     21 N21       -11.5426   -1.7523   53.3359 N.2     1  ZINC001207290212   -0.4700
     22 C22       -14.5387   -3.1494   56.3282 C.3     1  ZINC001207290212    0.0400
     23 C23       -14.0485   -3.2775   57.7941 C.3     1  ZINC001207290212   -0.1000
     24 H24       -13.8996   -2.2933   58.2384 H       1  ZINC001207290212    0.0900
     25 C25       -15.0349   -4.1008   58.6248 C.3     1  ZINC001207290212   -0.1400
     26 H26        -9.0569    0.6775   62.7673 H       1  ZINC001207290212    0.0700
     27 H27       -10.4130   -0.3519   63.2868 H       1  ZINC001207290212    0.0700
     28 H28        -8.8143   -0.5354   64.0473 H       1  ZINC001207290212    0.0800
     29 H29        -7.8777   -1.3193   61.8894 H       1  ZINC001207290212    0.1300
     30 H30        -9.2338   -2.3486   62.4088 H       1  ZINC001207290212    0.1300
     31 H31        -8.8493   -1.9159   58.6440 H       1  ZINC001207290212    0.4300
     32 H32        -8.6131   -4.1309   59.6753 H       1  ZINC001207290212    0.1000
     33 H33        -9.9243   -3.6684   60.7868 H       1  ZINC001207290212    0.1100
     34 H34       -11.8877   -2.6347   59.0340 H       1  ZINC001207290212    0.4100
     35 H35       -11.2929   -3.2531   56.1790 H       1  ZINC001207290212    0.0800
     36 H36       -12.1917   -4.7029   55.6481 H       1  ZINC001207290212    0.0500
     37 H37       -13.7160   -4.2702   54.0417 H       1  ZINC001207290212    0.0600
     38 H38       -14.2563   -2.6031   53.7298 H       1  ZINC001207290212    0.1000
     39 H39       -11.6872   -4.8722   52.5647 H       1  ZINC001207290212    0.2100
     40 H40        -8.6750   -1.2181   51.6756 H       1  ZINC001207290212    0.0900
     41 H41        -9.9776   -0.0077   51.7555 H       1  ZINC001207290212    0.1000
     42 H42        -9.0505   -0.4154   53.2193 H       1  ZINC001207290212    0.1000
     43 H43       -15.2282   -2.3115   56.2246 H       1  ZINC001207290212    0.0900
     44 H44       -15.0065   -4.0769   55.9978 H       1  ZINC001207290212    0.0500
     45 H45       -15.1465   -5.0901   58.1811 H       1  ZINC001207290212    0.0600
     46 H46       -14.6584   -4.1996   59.6430 H       1  ZINC001207290212    0.0600
     47 H47       -16.0024   -3.5991   58.6423 H       1  ZINC001207290212    0.0600
@<TRIPOS>BOND
     1     1     2    1
     2     1    26    1
     3     1    27    1
     4     1    28    1
     5     2     3    1
     6     2    29    1
     7     2    30    1
     8     3     4    2
     9     3     5    2
    10     3     6   am
    11     6     7    1
    12     6    31    1
    13     7     8    1
    14     7    32    1
    15     7    33    1
    16     8     9    2
    17     8    10   am
    18    10    11    1
    19    10    34    1
    20    11    12    1
    21    11    23    1
    22    11    13    1
    23    13    14    1
    24    13    35    1
    25    13    36    1
    26    14    15    1
    27    14    22    1
    28    15    16    1
    29    15    37    1
    30    15    38    1
    31    16    21    1
    32    16    17    2
    33    17    18    1
    34    17    39    1
    35    18    19    1
    36    19    20    1
    37    19    21    2
    38    20    40    1
    39    20    41    1
    40    20    42    1
    41    22    23    1
    42    22    43    1
    43    22    44    1
    44    23    24    1
    45    23    25    1
    46    25    45    1
    47    25    46    1
    48    25    47    1
@<TRIPOS>SUBSTRUCTURE
     1 ZINC001207290212        1 TEMP              0 ****  ****    0 ROOT


##########                                Name:    ZINC000563265674
##########                DOCK_Rotatable_Bonds:                   7
##########                         Heavy_Atoms:                  25
##########                    Molecular_Weight:             386.859
##########                DOCK_Rotatable_Bonds:                   7
##########                       Formal_Charge:          0.00999963
##########                     HBond_Acceptors:                  10
##########                        HBond_Donors:                   2
##########                         Heavy_Atoms:                  25
##########                          Grid_Score:          -35.908638
##########                     Grid_vdw_energy:          -34.537544
##########                      Grid_es_energy:           -1.371093
##########           Internal_energy_repulsive:           13.582216

@<TRIPOS>MOLECULE
ZINC000563265674
 44 45 1 0 0
SMALL
USER_CHARGES


@<TRIPOS>ATOM
      1 C1        -10.6988   -2.7317   52.7590 C.3     1  ZINC000563265674   -0.0600
      2 C2        -11.7288   -3.4448   53.5965 C.2     1  ZINC000563265674    0.1700
      3 N3        -12.3467   -4.5445   53.2839 N.2     1  ZINC000563265674   -0.3800
      4 O4        -13.1135   -4.8612   54.1688 O.3     1  ZINC000563265674    0.0900
      5 C5        -13.0560   -3.9665   55.1599 C.2     1  ZINC000563265674    0.1900
      6 C6        -13.8497   -3.9937   56.4407 C.3     1  ZINC000563265674    0.2100
      7 C7        -15.1812   -3.2697   56.2308 C.3     1  ZINC000563265674   -0.1400
      8 C8        -14.1164   -5.4449   56.8448 C.3     1  ZINC000563265674   -0.1800
      9 N9        -13.0890   -3.3215   57.5025 N.3     1  ZINC000563265674   -0.6600
     10 C10       -13.9555   -2.9898   58.6415 C.3     1  ZINC000563265674    0.0400
     11 C11       -13.1083   -2.5300   59.7999 C.2     1  ZINC000563265674    0.5200
     12 O12       -13.4794   -2.7258   60.9380 O.2     1  ZINC000563265674   -0.4900
     13 N13       -11.9384   -1.9012   59.5714 N.am    1  ZINC000563265674   -0.6700
     14 C14       -11.1514   -1.4742   60.6475 C.ar    1  ZINC000563265674    0.1400
     15 C15       -11.5703   -0.4123   61.4373 C.ar    1  ZINC000563265674   -0.0300
     16 C16       -10.7918    0.0068   62.4988 C.ar    1  ZINC000563265674   -0.6400
     17 S17       -11.3234    1.3544   63.5018 S.o2    1  ZINC000563265674    2.5000
     18 C18       -10.8159    2.8322   62.5802 C.3     1  ZINC000563265674   -0.6500
     19 O19       -12.7396    1.2401   63.5204 O.2     1  ZINC000563265674   -0.9300
     20 O20       -10.5622    1.2249   64.6947 O.2     1  ZINC000563265674   -0.9300
     21 C21        -9.5962   -0.6301   62.7755 C.ar    1  ZINC000563265674   -0.0300
     22 C22        -9.1750   -1.6883   61.9909 C.ar    1  ZINC000563265674   -0.1100
     23 C23        -9.9516   -2.1161   60.9310 C.ar    1  ZINC000563265674   -0.0200
     24 Cl24       -9.4229   -3.4447   59.9466 Cl      1  ZINC000563265674   -0.0500
     25 N25       -12.1733   -3.0632   54.8072 N.2     1  ZINC000563265674   -0.4700
     26 H26        -9.7062   -3.1101   53.0037 H       1  ZINC000563265674    0.0900
     27 H27       -10.9043   -2.9071   51.7030 H       1  ZINC000563265674    0.0900
     28 H28       -10.7406   -1.6620   52.9646 H       1  ZINC000563265674    0.0900
     29 H29       -15.7456   -3.7684   55.4429 H       1  ZINC000563265674    0.0800
     30 H30       -15.7553   -3.2893   57.1571 H       1  ZINC000563265674    0.0800
     31 H31       -14.9912   -2.2358   55.9429 H       1  ZINC000563265674    0.0700
     32 H32       -13.1679   -5.9607   56.9943 H       1  ZINC000563265674    0.0700
     33 H33       -14.6906   -5.4645   57.7711 H       1  ZINC000563265674    0.0800
     34 H34       -14.6808   -5.9437   56.0569 H       1  ZINC000563265674    0.0800
     35 H35       -12.3045   -3.8838   57.7967 H       1  ZINC000563265674    0.3600
     36 H36       -14.6427   -2.1936   58.3554 H       1  ZINC000563265674    0.1200
     37 H37       -14.5239   -3.8724   58.9348 H       1  ZINC000563265674    0.0800
     38 H38       -11.6416   -1.7447   58.6614 H       1  ZINC000563265674    0.4200
     39 H39       -12.5039    0.0862   61.2218 H       1  ZINC000563265674    0.1700
     40 H40       -11.3005    2.8357   61.6039 H       1  ZINC000563265674    0.1300
     41 H41       -11.1085    3.7241   63.1342 H       1  ZINC000563265674    0.1400
     42 H42        -9.7339    2.8247   62.4488 H       1  ZINC000563265674    0.1400
     43 H43        -8.9897   -0.3003   63.6060 H       1  ZINC000563265674    0.1500
     44 H44        -8.2404   -2.1835   62.2094 H       1  ZINC000563265674    0.1500
@<TRIPOS>BOND
     1     1     2    1
     2     1    26    1
     3     1    27    1
     4     1    28    1
     5     2    25    1
     6     2     3    2
     7     3     4    1
     8     4     5    1
     9     5     6    1
    10     5    25    2
    11     6     7    1
    12     6     8    1
    13     6     9    1
    14     7    29    1
    15     7    30    1
    16     7    31    1
    17     8    32    1
    18     8    33    1
    19     8    34    1
    20     9    10    1
    21     9    35    1
    22    10    11    1
    23    10    36    1
    24    10    37    1
    25    11    12    2
    26    11    13   am
    27    13    14    1
    28    13    38    1
    29    14    23   ar
    30    14    15   ar
    31    15    16   ar
    32    15    39    1
    33    16    17    1
    34    16    21   ar
    35    17    18    1
    36    17    19    2
    37    17    20    2
    38    18    40    1
    39    18    41    1
    40    18    42    1
    41    21    22   ar
    42    21    43    1
    43    22    23   ar
    44    22    44    1
    45    23    24    1
@<TRIPOS>SUBSTRUCTURE
     1 ZINC000563265674        1 TEMP              0 ****  ****    0 ROOT


##########                                Name:    ZINC000550952205
##########                DOCK_Rotatable_Bonds:                   7
##########                         Heavy_Atoms:                  28
##########                    Molecular_Weight:             407.484
##########                DOCK_Rotatable_Bonds:                   7
##########                       Formal_Charge:        -2.68221e-07
##########                     HBond_Acceptors:                   8
##########                        HBond_Donors:                   2
##########                         Heavy_Atoms:                  28
##########                          Grid_Score:          -35.865356
##########                     Grid_vdw_energy:          -32.890472
##########                      Grid_es_energy:           -2.974882
##########           Internal_energy_repulsive:            9.916451

@<TRIPOS>MOLECULE
ZINC000550952205
 51 54 1 0 0
SMALL
USER_CHARGES


@<TRIPOS>ATOM
      1 O1         -7.0772    0.0034   67.0050 O.2     1  ZINC000550952205   -0.5100
      2 C2         -7.5857    0.6309   66.0993 C.2     1  ZINC000550952205    0.5100
      3 N3         -7.4880    1.9749   66.0726 N.am    1  ZINC000550952205   -0.7000
      4 C4         -6.7728    2.6786   67.1401 C.3     1  ZINC000550952205    0.1200
      5 C5         -5.4376    3.1981   66.6031 C.3     1  ZINC000550952205   -0.0900
      6 H6         -5.5991    3.7113   65.6550 H       1  ZINC000550952205    0.1000
      7 C7         -4.8295    4.1508   67.5964 C.3     1  ZINC000550952205   -0.1300
      8 C8         -4.0423    5.2877   66.9170 C.3     1  ZINC000550952205   -0.1200
      9 C9         -3.1927    4.7989   65.7284 C.3     1  ZINC000550952205   -0.1300
     10 C10        -2.4978    3.4954   66.0149 C.3     1  ZINC000550952205   -0.1500
     11 C11        -3.3791    2.3442   65.4885 C.3     1  ZINC000550952205    0.3000
     12 F12        -3.9192    2.7160   64.2526 F       1  ZINC000550952205   -0.2000
     13 F13        -2.5822    1.2083   65.3109 F       1  ZINC000550952205   -0.2000
     14 C14        -4.4683    2.0168   66.3942 C.3     1  ZINC000550952205   -0.1700
     15 C15        -8.3147   -0.0863   65.0112 C.2     1  ZINC000550952205    0.5100
     16 O16        -8.4867   -1.2857   65.0840 O.2     1  ZINC000550952205   -0.4900
     17 N17        -8.7818    0.5981   63.9482 N.am    1  ZINC000550952205   -0.6400
     18 C18        -9.4642   -0.0733   62.9296 C.ar    1  ZINC000550952205    0.1500
     19 C19       -10.7498    0.3271   62.5690 C.ar    1  ZINC000550952205   -0.1200
     20 C20       -11.4262   -0.3171   61.5793 C.ar    1  ZINC000550952205   -0.0400
     21 C21       -10.8380   -1.4030   60.8992 C.ar    1  ZINC000550952205    0.0800
     22 N22       -11.3343   -2.1635   59.9042 N.2     1  ZINC000550952205   -0.4700
     23 C23       -10.5976   -3.1031   59.4458 C.2     1  ZINC000550952205    0.1200
     24 C24       -11.0076   -4.0372   58.3365 C.3     1  ZINC000550952205   -0.1100
     25 C25       -12.2492   -3.6660   57.5231 C.3     1  ZINC000550952205   -0.1500
     26 C26       -10.8584   -3.5352   56.8990 C.3     1  ZINC000550952205   -0.1500
     27 S27        -9.0921   -3.1665   60.2466 S.3     1  ZINC000550952205    0.1200
     28 C28        -9.5466   -1.8024   61.2632 C.ar    1  ZINC000550952205   -0.1700
     29 C29        -8.8622   -1.1327   62.2738 C.ar    1  ZINC000550952205   -0.0700
     30 H30        -7.8911    2.4763   65.3466 H       1  ZINC000550952205    0.4200
     31 H31        -7.3750    3.5174   67.4893 H       1  ZINC000550952205    0.0800
     32 H32        -6.5896    1.9934   67.9677 H       1  ZINC000550952205    0.0800
     33 H33        -5.6255    4.5854   68.2011 H       1  ZINC000550952205    0.0700
     34 H34        -4.1555    3.5966   68.2496 H       1  ZINC000550952205    0.0700
     35 H35        -4.7471    6.0388   66.5600 H       1  ZINC000550952205    0.0700
     36 H36        -3.3842    5.7486   67.6536 H       1  ZINC000550952205    0.0700
     37 H37        -3.8404    4.6701   64.8613 H       1  ZINC000550952205    0.0800
     38 H38        -2.4425    5.5550   65.4966 H       1  ZINC000550952205    0.0700
     39 H39        -1.5317    3.4769   65.5107 H       1  ZINC000550952205    0.0900
     40 H40        -2.3551    3.3851   67.0900 H       1  ZINC000550952205    0.1000
     41 H41        -4.0509    1.7343   67.3607 H       1  ZINC000550952205    0.1000
     42 H42        -5.0212    1.1691   65.9893 H       1  ZINC000550952205    0.1000
     43 H43        -8.6444    1.5565   63.8900 H       1  ZINC000550952205    0.4300
     44 H44       -11.2143    1.1571   63.0808 H       1  ZINC000550952205    0.1400
     45 H45       -12.4217    0.0060   61.3129 H       1  ZINC000550952205    0.1400
     46 H46       -10.8247   -5.0957   58.5215 H       1  ZINC000550952205    0.1300
     47 H47       -12.8835   -4.4803   57.1729 H       1  ZINC000550952205    0.1000
     48 H48       -12.7695   -2.7462   57.7903 H       1  ZINC000550952205    0.1100
     49 H49       -10.4637   -2.5294   56.7555 H       1  ZINC000550952205    0.1000
     50 H50       -10.5777   -4.2635   56.1380 H       1  ZINC000550952205    0.1100
     51 H51        -7.8640   -1.4412   62.5471 H       1  ZINC000550952205    0.1400
@<TRIPOS>BOND
     1     1     2    2
     2     2     3   am
     3     2    15    1
     4     3     4    1
     5     3    30    1
     6     4     5    1
     7     4    31    1
     8     4    32    1
     9     5     6    1
    10     5    14    1
    11     5     7    1
    12     7     8    1
    13     7    33    1
    14     7    34    1
    15     8     9    1
    16     8    35    1
    17     8    36    1
    18     9    10    1
    19     9    37    1
    20     9    38    1
    21    10    11    1
    22    10    39    1
    23    10    40    1
    24    11    12    1
    25    11    13    1
    26    11    14    1
    27    14    41    1
    28    14    42    1
    29    15    16    2
    30    15    17   am
    31    17    18    1
    32    17    43    1
    33    18    29   ar
    34    18    19   ar
    35    19    20   ar
    36    19    44    1
    37    20    21   ar
    38    20    45    1
    39    21    28   ar
    40    21    22    1
    41    22    23    2
    42    23    24    1
    43    23    27    1
    44    24    26    1
    45    24    25    1
    46    24    46    1
    47    25    26    1
    48    25    47    1
    49    25    48    1
    50    26    49    1
    51    26    50    1
    52    27    28    1
    53    28    29   ar
    54    29    51    1
@<TRIPOS>SUBSTRUCTURE
     1 ZINC000550952205        1 TEMP              0 ****  ****    0 ROOT


##########                                Name:    ZINC001579482641
##########                DOCK_Rotatable_Bonds:                   5
##########                         Heavy_Atoms:                  26
##########                    Molecular_Weight:             355.359
##########                DOCK_Rotatable_Bonds:                   5
##########                       Formal_Charge:                0.05
##########                     HBond_Acceptors:                  11
##########                        HBond_Donors:                   1
##########                         Heavy_Atoms:                  26
##########                          Grid_Score:          -35.861156
##########                     Grid_vdw_energy:          -32.435574
##########                      Grid_es_energy:           -3.425581
##########           Internal_energy_repulsive:           13.064161

@<TRIPOS>MOLECULE
ZINC001579482641
 43 46 1 0 0
SMALL
USER_CHARGES


@<TRIPOS>ATOM
      1 C1        -13.6787    0.8636   64.3653 C.3     1  ZINC001579482641    0.0300
      2 O2        -13.2392    0.2635   63.1182 O.3     1  ZINC001579482641   -0.3300
      3 C3        -13.8690   -0.8608   62.7252 C.2     1  ZINC001579482641    0.5300
      4 O4        -14.7049   -1.3716   63.4436 O.2     1  ZINC001579482641   -0.4900
      5 C5        -13.5430   -1.4725   61.4205 C.ar    1  ZINC001579482641    0.0900
      6 C6        -14.5338   -1.5796   60.4430 C.ar    1  ZINC001579482641   -0.0800
      7 C7        -14.2236   -2.1530   59.2233 C.ar    1  ZINC001579482641   -0.1200
      8 C8        -12.9235   -2.6063   59.0129 C.ar    1  ZINC001579482641    0.1100
      9 N9        -12.5683   -3.1879   57.8035 N.3     1  ZINC001579482641   -0.4600
     10 C10       -13.4221   -4.3670   57.5087 C.3     1  ZINC001579482641    0.0400
     11 C11       -13.2667   -4.5433   55.9773 C.3     1  ZINC001579482641   -0.1100
     12 C12       -13.2137   -3.0856   55.4651 C.3     1  ZINC001579482641   -0.0100
     13 H13       -14.1985   -2.7695   55.1211 H       1  ZINC001579482641    0.0900
     14 C14       -12.2060   -2.9588   54.3518 C.2     1  ZINC001579482641    0.1800
     15 N15       -11.1215   -3.6700   54.2053 N.2     1  ZINC001579482641   -0.2600
     16 N16       -10.4972   -3.2943   53.1457 N.2     1  ZINC001579482641   -0.2900
     17 C17       -11.1551   -2.3263   52.5680 C.2     1  ZINC001579482641    0.1500
     18 N18       -12.2609   -2.0892   53.3142 N.pl3   1  ZINC001579482641   -0.4800
     19 C19       -13.3005   -1.0897   53.0562 C.3     1  ZINC001579482641    0.0700
     20 C20       -12.7780   -2.2475   56.6813 C.3     1  ZINC001579482641    0.0600
     21 C21       -11.9760   -2.4665   60.0414 C.ar    1  ZINC001579482641    0.2300
     22 C22       -10.5873   -2.9447   59.8320 C.2     1  ZINC001579482641    0.2100
     23 N23        -9.4873   -2.4082   60.3222 N.2     1  ZINC001579482641   -0.2600
     24 N24        -8.4889   -3.1130   59.9134 N.pl3   1  ZINC001579482641   -0.2300
     25 N25        -8.9208   -4.0787   59.1800 N.2     1  ZINC001579482641   -0.0500
     26 N26       -10.2071   -4.0100   59.1120 N.2     1  ZINC001579482641   -0.2000
     27 N27       -12.3098   -1.9083   61.1908 N.ar    1  ZINC001579482641   -0.4000
     28 H28       -13.5421    0.1516   65.1792 H       1  ZINC001579482641    0.0700
     29 H29       -13.0911    1.7599   64.5641 H       1  ZINC001579482641    0.1100
     30 H30       -14.7329    1.1299   64.2886 H       1  ZINC001579482641    0.0700
     31 H31       -15.5330   -1.2186   60.6375 H       1  ZINC001579482641    0.1600
     32 H32       -14.9728   -2.2476   58.4512 H       1  ZINC001579482641    0.1600
     33 H33       -13.0569   -5.2481   58.0365 H       1  ZINC001579482641    0.1000
     34 H34       -14.4610   -4.1644   57.7692 H       1  ZINC001579482641    0.0600
     35 H35       -12.3414   -5.0689   55.7415 H       1  ZINC001579482641    0.1000
     36 H36       -14.1264   -5.0677   55.5602 H       1  ZINC001579482641    0.0800
     37 H37       -10.8725   -1.8124   51.6611 H       1  ZINC001579482641    0.2200
     38 H38       -14.0811   -1.5292   52.4353 H       1  ZINC001579482641    0.0800
     39 H39       -13.7309   -0.7605   54.0020 H       1  ZINC001579482641    0.0900
     40 H40       -12.8630   -0.2355   52.5393 H       1  ZINC001579482641    0.0900
     41 H41       -13.5588   -1.5316   56.9378 H       1  ZINC001579482641    0.0600
     42 H42       -11.8489   -1.7235   56.4575 H       1  ZINC001579482641    0.1000
     43 H43        -7.5576   -2.9424   60.1249 H       1  ZINC001579482641    0.4800
@<TRIPOS>BOND
     1     1     2    1
     2     1    28    1
     3     1    29    1
     4     1    30    1
     5     2     3    1
     6     3     4    2
     7     3     5    1
     8     5    27   ar
     9     5     6   ar
    10     6     7   ar
    11     6    31    1
    12     7     8   ar
    13     7    32    1
    14     8     9    1
    15     8    21   ar
    16     9    20    1
    17     9    10    1
    18    10    11    1
    19    10    33    1
    20    10    34    1
    21    11    12    1
    22    11    35    1
    23    11    36    1
    24    12    13    1
    25    12    14    1
    26    12    20    1
    27    14    18    1
    28    14    15    2
    29    15    16    1
    30    16    17    2
    31    17    18    1
    32    17    37    1
    33    18    19    1
    34    19    38    1
    35    19    39    1
    36    19    40    1
    37    20    41    1
    38    20    42    1
    39    21    22    1
    40    21    27   ar
    41    22    26    1
    42    22    23    2
    43    23    24    1
    44    24    25    1
    45    24    43    1
    46    25    26    2
@<TRIPOS>SUBSTRUCTURE
     1 ZINC001579482641        1 TEMP              0 ****  ****    0 ROOT


##########                                Name:    ZINC000443394081
##########                DOCK_Rotatable_Bonds:                   8
##########                         Heavy_Atoms:                  27
##########                    Molecular_Weight:             389.878
##########                DOCK_Rotatable_Bonds:                   8
##########                       Formal_Charge:          -0.0300003
##########                     HBond_Acceptors:                   6
##########                        HBond_Donors:                   1
##########                         Heavy_Atoms:                  27
##########                          Grid_Score:          -35.856789
##########                     Grid_vdw_energy:          -35.593712
##########                      Grid_es_energy:           -0.263076
##########           Internal_energy_repulsive:           32.648258

@<TRIPOS>MOLECULE
ZINC000443394081
 51 53 1 0 0
SMALL
USER_CHARGES


@<TRIPOS>ATOM
      1 C1        -13.8591   -2.2813   60.9315 C.3     1  ZINC000443394081    0.0200
      2 O2        -12.5758   -1.8919   60.4377 O.3     1  ZINC000443394081   -0.3000
      3 C3        -11.9840   -2.7201   59.5359 C.ar    1  ZINC000443394081    0.1000
      4 C4        -12.6219   -3.0156   58.3472 C.ar    1  ZINC000443394081   -0.1200
      5 C5        -12.0105   -3.8667   57.4223 C.ar    1  ZINC000443394081   -0.1300
      6 C6        -12.6877   -4.1854   56.1501 C.2     1  ZINC000443394081    0.5700
      7 O7        -13.6954   -4.8657   56.1516 O.2     1  ZINC000443394081   -0.4900
      8 N8        -12.1892   -3.7222   54.9869 N.am    1  ZINC000443394081   -0.6100
      9 C9        -12.7620   -3.9634   53.6500 C.3     1  ZINC000443394081    0.0900
     10 C10       -12.2552   -2.7840   52.7827 C.3     1  ZINC000443394081   -0.1300
     11 C11       -10.8203   -2.5835   53.3376 C.3     1  ZINC000443394081   -0.1000
     12 H12       -10.1260   -3.2842   52.8739 H       1  ZINC000443394081    0.0900
     13 C13       -10.3542   -1.1419   53.1248 C.3     1  ZINC000443394081   -0.1500
     14 C14       -10.9878   -2.8873   54.8413 C.3     1  ZINC000443394081    0.1400
     15 H15       -10.1177   -3.4315   55.2087 H       1  ZINC000443394081    0.0800
     16 C16       -11.1519   -1.5812   55.6209 C.3     1  ZINC000443394081    0.0600
     17 O17       -12.4425   -1.0276   55.3567 O.3     1  ZINC000443394081   -0.5400
     18 C18       -10.7572   -4.4146   57.7043 C.ar    1  ZINC000443394081   -0.1000
     19 C19       -10.1260   -4.1161   58.8928 C.ar    1  ZINC000443394081   -0.1800
     20 C20       -10.7304   -3.2665   59.8088 C.ar    1  ZINC000443394081    0.1300
     21 O21       -10.1046   -2.9754   60.9783 O.3     1  ZINC000443394081   -0.3000
     22 C22        -8.9301   -2.1649   60.9014 C.3     1  ZINC000443394081    0.1000
     23 C23        -9.3082   -0.7728   60.4653 C.ar    1  ZINC000443394081   -0.0800
     24 C24        -9.2713   -0.4341   59.1259 C.ar    1  ZINC000443394081   -0.0800
     25 C25        -9.6181    0.8431   58.7257 C.ar    1  ZINC000443394081   -0.1100
     26 C26       -10.0014    1.7820   59.6648 C.ar    1  ZINC000443394081   -0.1000
     27 C27       -10.0386    1.4444   61.0048 C.ar    1  ZINC000443394081   -0.1100
     28 C28        -9.6978    0.1650   61.4052 C.ar    1  ZINC000443394081   -0.0300
     29 Cl29       -9.7444   -0.2597   63.0878 Cl      1  ZINC000443394081   -0.0700
     30 H30       -14.2171   -1.5353   61.6409 H       1  ZINC000443394081    0.1000
     31 H31       -14.5601   -2.3582   60.1004 H       1  ZINC000443394081    0.0600
     32 H32       -13.7788   -3.2475   61.4297 H       1  ZINC000443394081    0.0600
     33 H33       -13.5911   -2.5902   58.1328 H       1  ZINC000443394081    0.1500
     34 H34       -12.4029   -4.9111   53.2488 H       1  ZINC000443394081    0.0700
     35 H35       -13.8509   -3.9588   53.6974 H       1  ZINC000443394081    0.0800
     36 H36       -12.2315   -3.0570   51.7277 H       1  ZINC000443394081    0.0900
     37 H37       -12.8633   -1.8934   52.9408 H       1  ZINC000443394081    0.0800
     38 H38       -11.0446   -0.4598   53.6208 H       1  ZINC000443394081    0.0600
     39 H39        -9.3559   -1.0171   53.5443 H       1  ZINC000443394081    0.0600
     40 H40       -10.3298   -0.9217   52.0575 H       1  ZINC000443394081    0.0600
     41 H41       -11.0535   -1.7803   56.6881 H       1  ZINC000443394081    0.0600
     42 H42       -10.3827   -0.8739   55.3108 H       1  ZINC000443394081    0.0400
     43 H43       -13.1769   -1.6015   55.6143 H       1  ZINC000443394081    0.3700
     44 H44       -10.2827   -5.0726   56.9914 H       1  ZINC000443394081    0.1400
     45 H45        -9.1571   -4.5409   59.1098 H       1  ZINC000443394081    0.1400
     46 H46        -8.4536   -2.1219   61.8808 H       1  ZINC000443394081    0.0800
     47 H47        -8.2376   -2.5965   60.1788 H       1  ZINC000443394081    0.0800
     48 H48        -8.9712   -1.1672   58.3918 H       1  ZINC000443394081    0.1400
     49 H49        -9.5891    1.1072   57.6789 H       1  ZINC000443394081    0.1300
     50 H50       -10.2714    2.7797   59.3517 H       1  ZINC000443394081    0.1300
     51 H51       -10.3382    2.1782   61.7385 H       1  ZINC000443394081    0.1400
@<TRIPOS>BOND
     1     1     2    1
     2     1    30    1
     3     1    31    1
     4     1    32    1
     5     2     3    1
     6     3    20   ar
     7     3     4   ar
     8     4     5   ar
     9     4    33    1
    10     5     6    1
    11     5    18   ar
    12     6     7    2
    13     6     8   am
    14     8    14    1
    15     8     9    1
    16     9    10    1
    17     9    34    1
    18     9    35    1
    19    10    11    1
    20    10    36    1
    21    10    37    1
    22    11    12    1
    23    11    13    1
    24    11    14    1
    25    13    38    1
    26    13    39    1
    27    13    40    1
    28    14    15    1
    29    14    16    1
    30    16    17    1
    31    16    41    1
    32    16    42    1
    33    17    43    1
    34    18    19   ar
    35    18    44    1
    36    19    20   ar
    37    19    45    1
    38    20    21    1
    39    21    22    1
    40    22    23    1
    41    22    46    1
    42    22    47    1
    43    23    28   ar
    44    23    24   ar
    45    24    25   ar
    46    24    48    1
    47    25    26   ar
    48    25    49    1
    49    26    27   ar
    50    26    50    1
    51    27    28   ar
    52    27    51    1
    53    28    29    1
@<TRIPOS>SUBSTRUCTURE
     1 ZINC000443394081        1 TEMP              0 ****  ****    0 ROOT


##########                                Name:    ZINC000962855438
##########                DOCK_Rotatable_Bonds:                   7
##########                         Heavy_Atoms:                  27
##########                    Molecular_Weight:             370.448
##########                DOCK_Rotatable_Bonds:                   7
##########                       Formal_Charge:           0.0300005
##########                     HBond_Acceptors:                   6
##########                        HBond_Donors:                   2
##########                         Heavy_Atoms:                  27
##########                          Grid_Score:          -35.841675
##########                     Grid_vdw_energy:          -34.707455
##########                      Grid_es_energy:           -1.134221
##########           Internal_energy_repulsive:           11.090615

@<TRIPOS>MOLECULE
ZINC000962855438
 53 56 1 0 0
SMALL
USER_CHARGES


@<TRIPOS>ATOM
      1 C1        -11.1203    3.3816   60.0585 C.3     1  ZINC000962855438   -0.1100
      2 C2        -10.7994    2.0301   60.6432 C.2     1  ZINC000962855438   -0.1700
      3 C3        -10.4085    0.9207   59.7600 C.2     1  ZINC000962855438    0.5600
      4 O4        -10.1627    1.1339   58.5881 O.2     1  ZINC000962855438   -0.5400
      5 N5        -10.3226   -0.3322   60.2494 N.am    1  ZINC000962855438   -0.7100
      6 C6         -9.9348   -1.4374   59.3693 C.3     1  ZINC000962855438    0.1500
      7 H7         -9.3302   -1.0775   58.5369 H       1  ZINC000962855438    0.1200
      8 C8        -11.1804   -2.2047   58.8600 C.3     1  ZINC000962855438    0.1000
      9 N9        -10.6865   -3.5569   58.5418 N.am    1  ZINC000962855438   -0.6100
     10 C10       -11.2529   -4.4151   57.6705 C.2     1  ZINC000962855438    0.5800
     11 O11       -10.7566   -5.5095   57.4855 O.2     1  ZINC000962855438   -0.5200
     12 C12       -12.4752   -4.0265   56.9413 C.ar    1  ZINC000962855438   -0.1500
     13 C13       -13.6955   -3.9524   57.6128 C.ar    1  ZINC000962855438   -0.0600
     14 C14       -14.8392   -3.5905   56.9340 C.ar    1  ZINC000962855438   -0.1500
     15 C15       -14.7787   -3.3027   55.5796 C.ar    1  ZINC000962855438   -0.0500
     16 C16       -13.5798   -3.3755   54.9062 C.ar    1  ZINC000962855438   -0.1800
     17 C17       -12.4107   -3.7244   55.5688 C.ar    1  ZINC000962855438    0.1600
     18 O18       -11.3442   -3.7143   54.7271 O.3     1  ZINC000962855438   -0.2800
     19 C19       -11.8111   -3.7897   53.3693 C.3     1  ZINC000962855438    0.0700
     20 H20       -11.8850   -4.8271   53.0433 H       1  ZINC000962855438    0.0900
     21 C21       -10.8957   -2.9942   52.4364 C.3     1  ZINC000962855438   -0.1500
     22 C22       -13.2120   -3.1349   53.4545 C.3     1  ZINC000962855438   -0.1100
     23 C23        -9.4735   -3.8137   59.3318 C.3     1  ZINC000962855438    0.0700
     24 C24        -9.1887   -2.5434   60.1613 C.3     1  ZINC000962855438    0.0900
     25 H25        -8.1188   -2.3382   60.1975 H       1  ZINC000962855438    0.0900
     26 O26        -9.7220   -2.6713   61.4810 O.3     1  ZINC000962855438   -0.5600
     27 C27       -10.8696    1.8407   61.9577 C.2     1  ZINC000962855438   -0.0600
     28 C28       -11.2214    2.6803   63.1676 C.3     1  ZINC000962855438   -0.1000
     29 C29       -10.3299    1.7392   63.9929 C.3     1  ZINC000962855438   -0.1400
     30 C30       -10.6397    0.6877   62.9116 C.3     1  ZINC000962855438   -0.1100
     31 H31       -12.1839    3.4332   59.8254 H       1  ZINC000962855438    0.0700
     32 H32       -10.8683    4.1587   60.7801 H       1  ZINC000962855438    0.0700
     33 H33       -10.5410    3.5300   59.1472 H       1  ZINC000962855438    0.0700
     34 H34       -10.5174   -0.5020   61.1843 H       1  ZINC000962855438    0.4100
     35 H35       -11.9414   -2.2523   59.6388 H       1  ZINC000962855438    0.0800
     36 H36       -11.5809   -1.7270   57.9658 H       1  ZINC000962855438    0.0900
     37 H37       -13.7444   -4.1796   58.6675 H       1  ZINC000962855438    0.1400
     38 H38       -15.7822   -3.5317   57.4572 H       1  ZINC000962855438    0.1400
     39 H39       -15.6764   -3.0204   55.0496 H       1  ZINC000962855438    0.1300
     40 H40        -9.8918   -3.4175   52.4645 H       1  ZINC000962855438    0.0700
     41 H41       -11.2826   -3.0440   51.4186 H       1  ZINC000962855438    0.0800
     42 H42       -10.8609   -1.9543   52.7613 H       1  ZINC000962855438    0.0700
     43 H43       -13.9167   -3.6347   52.7901 H       1  ZINC000962855438    0.1000
     44 H44       -13.1580   -2.0692   53.2325 H       1  ZINC000962855438    0.1000
     45 H45        -9.6367   -4.6621   59.9964 H       1  ZINC000962855438    0.0800
     46 H46        -8.6342   -4.0173   58.6667 H       1  ZINC000962855438    0.0800
     47 H47        -9.5860   -1.8923   62.0374 H       1  ZINC000962855438    0.3900
     48 H48       -10.8443    3.7016   63.1137 H       1  ZINC000962855438    0.0900
     49 H49       -12.2757    2.6318   63.4399 H       1  ZINC000962855438    0.1000
     50 H50        -9.2839    2.0434   64.0299 H       1  ZINC000962855438    0.0900
     51 H51       -10.7383    1.4928   64.9730 H       1  ZINC000962855438    0.0800
     52 H52       -11.5356    0.1019   63.1175 H       1  ZINC000962855438    0.1000
     53 H53        -9.7817    0.0701   62.6459 H       1  ZINC000962855438    0.0800
@<TRIPOS>BOND
     1     1     2    1
     2     1    31    1
     3     1    32    1
     4     1    33    1
     5     2     3    1
     6     2    27    2
     7     3     4    2
     8     3     5   am
     9     5     6    1
    10     5    34    1
    11     6     7    1
    12     6    24    1
    13     6     8    1
    14     8     9    1
    15     8    35    1
    16     8    36    1
    17     9    10   am
    18     9    23    1
    19    10    11    2
    20    10    12    1
    21    12    17   ar
    22    12    13   ar
    23    13    14   ar
    24    13    37    1
    25    14    15   ar
    26    14    38    1
    27    15    16   ar
    28    15    39    1
    29    16    22    1
    30    16    17   ar
    31    17    18    1
    32    18    19    1
    33    19    20    1
    34    19    21    1
    35    19    22    1
    36    21    40    1
    37    21    41    1
    38    21    42    1
    39    22    43    1
    40    22    44    1
    41    23    24    1
    42    23    45    1
    43    23    46    1
    44    24    25    1
    45    24    26    1
    46    26    47    1
    47    27    30    1
    48    27    28    1
    49    28    29    1
    50    28    48    1
    51    28    49    1
    52    29    30    1
    53    29    50    1
    54    29    51    1
    55    30    52    1
    56    30    53    1
@<TRIPOS>SUBSTRUCTURE
     1 ZINC000962855438        1 TEMP              0 ****  ****    0 ROOT


##########                                Name:    ZINC000047262406
##########                DOCK_Rotatable_Bonds:                   6
##########                         Heavy_Atoms:                  28
##########                    Molecular_Weight:             417.919
##########                DOCK_Rotatable_Bonds:                   6
##########                       Formal_Charge:          -0.0100002
##########                     HBond_Acceptors:                   9
##########                        HBond_Donors:                   1
##########                         Heavy_Atoms:                  28
##########                          Grid_Score:          -35.836784
##########                     Grid_vdw_energy:          -35.426033
##########                      Grid_es_energy:           -0.410752
##########           Internal_energy_repulsive:           15.114545

@<TRIPOS>MOLECULE
ZINC000047262406
 48 51 1 0 0
SMALL
USER_CHARGES


@<TRIPOS>ATOM
      1 C1        -12.6173   -3.6376   54.2610 C.3     1  ZINC000047262406   -0.1500
      2 C2        -12.2521   -2.1539   54.3396 C.3     1  ZINC000047262406    0.1800
      3 H3        -13.1126   -1.5519   54.0476 H       1  ZINC000047262406    0.0800
      4 C4        -11.1012   -1.8699   53.4091 C.2     1  ZINC000047262406    0.1700
      5 N5        -10.7456   -2.5910   52.3836 N.2     1  ZINC000047262406   -0.2500
      6 N6         -9.7231   -2.0567   51.8142 N.2     1  ZINC000047262406   -0.2700
      7 C7         -9.3874   -0.9636   52.4643 C.2     1  ZINC000047262406    0.2400
      8 C8         -8.2741   -0.0604   52.1367 C.2     1  ZINC000047262406   -0.1500
      9 C9         -7.9462    1.0673   52.8257 C.2     1  ZINC000047262406   -0.0600
     10 C10        -6.8593    1.7472   52.3219 C.2     1  ZINC000047262406   -0.1400
     11 C11        -6.2965    1.1989   51.2401 C.2     1  ZINC000047262406   -0.1900
     12 S12        -7.1530   -0.2715   50.7980 S.3     1  ZINC000047262406    0.1700
     13 O13       -10.2594   -0.8229   53.4840 O.3     1  ZINC000047262406   -0.2200
     14 N14       -11.8635   -1.8175   55.7158 N.3     1  ZINC000047262406   -0.5200
     15 C15       -11.0204   -2.8701   56.2967 C.3     1  ZINC000047262406    0.0500
     16 C16       -10.5167   -2.4219   57.6706 C.3     1  ZINC000047262406   -0.1000
     17 C17       -11.7151   -2.1411   58.5815 C.3     1  ZINC000047262406   -0.1100
     18 C18       -11.2265   -1.6420   59.9168 C.2     1  ZINC000047262406    0.5100
     19 O19       -11.5956   -2.1820   60.9381 O.2     1  ZINC000047262406   -0.4600
     20 N20       -10.3793   -0.5954   59.9761 N.am    1  ZINC000047262406   -0.6600
     21 C21        -9.9272   -0.1334   61.2118 C.ar    1  ZINC000047262406    0.3600
     22 C22       -10.2360    1.1593   61.6181 C.ar    1  ZINC000047262406   -0.2000
     23 C23        -9.7817    1.6057   62.8469 C.ar    1  ZINC000047262406   -0.0400
     24 C24        -9.0306    0.7390   63.6300 C.ar    1  ZINC000047262406   -0.1200
     25 Cl25       -8.4367    1.2481   65.1799 Cl      1  ZINC000047262406   -0.0500
     26 C26        -8.7614   -0.5337   63.1624 C.ar    1  ZINC000047262406    0.1500
     27 N27        -9.2126   -0.9320   61.9887 N.ar    1  ZINC000047262406   -0.4600
     28 C28       -12.6024   -1.0765   57.9305 C.3     1  ZINC000047262406   -0.1100
     29 C29       -13.0456   -1.5637   56.5492 C.3     1  ZINC000047262406    0.0600
     30 H30       -13.4497   -3.8430   54.9341 H       1  ZINC000047262406    0.0800
     31 H31       -12.9056   -3.8872   53.2399 H       1  ZINC000047262406    0.0700
     32 H32       -11.7568   -4.2396   54.5530 H       1  ZINC000047262406    0.0800
     33 H33        -8.4931    1.4011   53.6951 H       1  ZINC000047262406    0.1600
     34 H34        -6.4887    2.6581   52.7685 H       1  ZINC000047262406    0.1600
     35 H35        -5.4398    1.5981   50.7176 H       1  ZINC000047262406    0.1800
     36 H36       -11.6037   -3.7847   56.4044 H       1  ZINC000047262406    0.0400
     37 H37       -10.1697   -3.0572   55.6414 H       1  ZINC000047262406    0.0900
     38 H38        -9.9037   -3.2099   58.1083 H       1  ZINC000047262406    0.0800
     39 H39        -9.9218   -1.5151   57.5620 H       1  ZINC000047262406    0.0900
     40 H40       -12.2880   -3.0576   58.7226 H       1  ZINC000047262406    0.1000
     41 H41       -10.0843   -0.1634   59.1592 H       1  ZINC000047262406    0.4200
     42 H42       -10.8224    1.8071   60.9834 H       1  ZINC000047262406    0.1500
     43 H43       -10.0059    2.6053   63.1888 H       1  ZINC000047262406    0.1500
     44 H44        -8.1774   -1.2116   63.7672 H       1  ZINC000047262406    0.1700
     45 H45       -13.4795   -0.9031   58.5540 H       1  ZINC000047262406    0.0700
     46 H46       -12.0403   -0.1485   57.8260 H       1  ZINC000047262406    0.0800
     47 H47       -13.6660   -0.8018   56.0772 H       1  ZINC000047262406    0.0700
     48 H48       -13.6194   -2.4843   56.6557 H       1  ZINC000047262406    0.0400
@<TRIPOS>BOND
     1     1     2    1
     2     1    30    1
     3     1    31    1
     4     1    32    1
     5     2     3    1
     6     2     4    1
     7     2    14    1
     8     4    13    1
     9     4     5    2
    10     5     6    1
    11     6     7    2
    12     7     8    1
    13     7    13    1
    14     8    12    1
    15     8     9    2
    16     9    10    1
    17     9    33    1
    18    10    11    2
    19    10    34    1
    20    11    12    1
    21    11    35    1
    22    14    29    1
    23    14    15    1
    24    15    16    1
    25    15    36    1
    26    15    37    1
    27    16    17    1
    28    16    38    1
    29    16    39    1
    30    17    18    1
    31    17    28    1
    32    17    40    1
    33    18    19    2
    34    18    20   am
    35    20    21    1
    36    20    41    1
    37    21    27   ar
    38    21    22   ar
    39    22    23   ar
    40    22    42    1
    41    23    24   ar
    42    23    43    1
    43    24    25    1
    44    24    26   ar
    45    26    27   ar
    46    26    44    1
    47    28    29    1
    48    28    45    1
    49    28    46    1
    50    29    47    1
    51    29    48    1
@<TRIPOS>SUBSTRUCTURE
     1 ZINC000047262406        1 TEMP              0 ****  ****    0 ROOT


##########                                Name:    ZINC001009116151
##########                DOCK_Rotatable_Bonds:                   6
##########                         Heavy_Atoms:                  25
##########                    Molecular_Weight:             342.481
##########                DOCK_Rotatable_Bonds:                   6
##########                       Formal_Charge:           0.0600006
##########                     HBond_Acceptors:                   4
##########                        HBond_Donors:                   1
##########                         Heavy_Atoms:                  25
##########                          Grid_Score:          -35.831161
##########                     Grid_vdw_energy:          -35.258358
##########                      Grid_es_energy:           -0.572803
##########           Internal_energy_repulsive:           13.417727

@<TRIPOS>MOLECULE
ZINC001009116151
 55 59 1 0 0
SMALL
USER_CHARGES


@<TRIPOS>ATOM
      1 O1        -10.5688   -4.8928   58.4461 O.2     1  ZINC001009116151   -0.5400
      2 C2        -11.2467   -3.8880   58.4047 C.2     1  ZINC001009116151    0.5200
      3 N3        -12.3895   -3.8751   57.6904 N.am    1  ZINC001009116151   -0.7300
      4 C4        -12.8097   -5.0728   56.9589 C.3     1  ZINC001009116151    0.1500
      5 C5        -13.0074   -4.7255   55.4821 C.3     1  ZINC001009116151   -0.1200
      6 H6        -13.3433   -5.5458   54.8477 H       1  ZINC001009116151    0.1100
      7 C7        -12.0527   -3.7018   54.8645 C.3     1  ZINC001009116151   -0.1700
      8 H8        -11.2305   -3.3059   55.4606 H       1  ZINC001009116151    0.1200
      9 C9        -11.8947   -3.6881   53.3288 C.3     1  ZINC001009116151    0.1300
     10 N10       -12.9769   -2.7970   52.8496 N.am    1  ZINC001009116151   -0.6200
     11 C11       -12.9203   -1.8883   51.8559 C.2     1  ZINC001009116151    0.5500
     12 O12       -11.8898   -1.7304   51.2363 O.2     1  ZINC001009116151   -0.5300
     13 C13       -14.1379   -1.0685   51.5145 C.3     1  ZINC001009116151   -0.1200
     14 C14       -13.7527    0.1792   50.6862 C.3     1  ZINC001009116151   -0.0900
     15 C15       -13.9100   -0.2519   49.2465 C.2     1  ZINC001009116151   -0.1800
     16 C16       -14.6200   -1.3435   49.1577 C.2     1  ZINC001009116151   -0.1500
     17 C17       -15.0547   -1.8224   50.5233 C.3     1  ZINC001009116151   -0.0900
     18 C18       -14.1352   -3.1313   53.7106 C.3     1  ZINC001009116151    0.1200
     19 C19       -13.5191   -3.3223   55.1501 C.3     1  ZINC001009116151   -0.1600
     20 H20       -13.8187   -2.6172   55.9254 H       1  ZINC001009116151    0.1300
     21 C21       -10.8145   -2.6559   59.1572 C.3     1  ZINC001009116151   -0.0700
     22 C22       -11.8912   -2.2764   60.1758 C.3     1  ZINC001009116151   -0.1100
     23 C23       -11.4524   -1.0255   60.9396 C.3     1  ZINC001009116151   -0.1100
     24 C24       -10.0831   -0.5711   60.4303 C.3     1  ZINC001009116151   -0.0900
     25 C25        -9.0607   -1.6878   60.6502 C.3     1  ZINC001009116151   -0.1100
     26 C26        -9.4995   -2.9387   59.8864 C.3     1  ZINC001009116151   -0.0900
     27 C27       -10.1750   -0.2507   58.9371 C.3     1  ZINC001009116151   -0.1100
     28 C28       -10.6139   -1.5016   58.1732 C.3     1  ZINC001009116151   -0.1000
     29 H29       -12.9338   -3.0727   57.6605 H       1  ZINC001009116151    0.4000
     30 H30       -12.0437   -5.8427   57.0518 H       1  ZINC001009116151    0.0800
     31 H31       -13.7476   -5.4417   57.3742 H       1  ZINC001009116151    0.0700
     32 H32       -10.9204   -3.2863   53.0505 H       1  ZINC001009116151    0.0900
     33 H33       -12.0223   -4.6923   52.9245 H       1  ZINC001009116151    0.0800
     34 H34       -14.6831   -0.7877   52.4156 H       1  ZINC001009116151    0.1100
     35 H35       -14.4259    1.0066   50.9105 H       1  ZINC001009116151    0.0900
     36 H36       -12.7198    0.4639   50.8866 H       1  ZINC001009116151    0.0800
     37 H37       -13.4903    0.2743   48.4020 H       1  ZINC001009116151    0.1300
     38 H38       -14.8650   -1.8391   48.2300 H       1  ZINC001009116151    0.1300
     39 H39       -14.9071   -2.8986   50.6130 H       1  ZINC001009116151    0.0900
     40 H40       -16.0989   -1.5655   50.7012 H       1  ZINC001009116151    0.0900
     41 H41       -14.8512   -2.3096   53.7203 H       1  ZINC001009116151    0.0900
     42 H42       -14.6126   -4.0486   53.3660 H       1  ZINC001009116151    0.0800
     43 H43       -12.8279   -2.0749   59.6562 H       1  ZINC001009116151    0.0700
     44 H44       -12.0341   -3.0988   60.8767 H       1  ZINC001009116151    0.0700
     45 H45       -12.1808   -0.2298   60.7829 H       1  ZINC001009116151    0.0700
     46 H46       -11.3868   -1.2537   62.0035 H       1  ZINC001009116151    0.0700
     47 H47        -9.7705    0.3202   60.9745 H       1  ZINC001009116151    0.0700
     48 H48        -8.0852   -1.3639   60.2874 H       1  ZINC001009116151    0.0700
     49 H49        -8.9952   -1.9161   61.7141 H       1  ZINC001009116151    0.0700
     50 H50        -9.6424   -3.7610   60.5874 H       1  ZINC001009116151    0.0700
     51 H51        -8.7325   -3.2091   59.1607 H       1  ZINC001009116151    0.0700
     52 H52       -10.9035    0.5449   58.7802 H       1  ZINC001009116151    0.0700
     53 H53        -9.1995    0.0731   58.5741 H       1  ZINC001009116151    0.0700
     54 H54        -9.8468   -1.7719   57.4475 H       1  ZINC001009116151    0.0700
     55 H55       -11.5507   -1.3001   57.6536 H       1  ZINC001009116151    0.0700
@<TRIPOS>BOND
     1     1     2    2
     2     2     3   am
     3     2    21    1
     4     3     4    1
     5     3    29    1
     6     4     5    1
     7     4    30    1
     8     4    31    1
     9     5     6    1
    10     5    19    1
    11     5     7    1
    12     7     8    1
    13     7    19    1
    14     7     9    1
    15     9    10    1
    16     9    32    1
    17     9    33    1
    18    10    11   am
    19    10    18    1
    20    11    12    2
    21    11    13    1
    22    13    17    1
    23    13    14    1
    24    13    34    1
    25    14    15    1
    26    14    35    1
    27    14    36    1
    28    15    16    2
    29    15    37    1
    30    16    17    1
    31    16    38    1
    32    17    39    1
    33    17    40    1
    34    18    19    1
    35    18    41    1
    36    18    42    1
    37    19    20    1
    38    21    26    1
    39    21    28    1
    40    21    22    1
    41    22    23    1
    42    22    43    1
    43    22    44    1
    44    23    24    1
    45    23    45    1
    46    23    46    1
    47    24    25    1
    48    24    27    1
    49    24    47    1
    50    25    26    1
    51    25    48    1
    52    25    49    1
    53    26    50    1
    54    26    51    1
    55    27    28    1
    56    27    52    1
    57    27    53    1
    58    28    54    1
    59    28    55    1
@<TRIPOS>SUBSTRUCTURE
     1 ZINC001009116151        1 TEMP              0 ****  ****    0 ROOT


##########                                Name:    ZINC000492313853
##########                DOCK_Rotatable_Bonds:                   8
##########                         Heavy_Atoms:                  30
##########                    Molecular_Weight:             418.422
##########                DOCK_Rotatable_Bonds:                   8
##########                       Formal_Charge:          -0.0100008
##########                     HBond_Acceptors:                  10
##########                        HBond_Donors:                   2
##########                         Heavy_Atoms:                  30
##########                          Grid_Score:          -35.825451
##########                     Grid_vdw_energy:          -34.693111
##########                      Grid_es_energy:           -1.132338
##########           Internal_energy_repulsive:           14.748054

@<TRIPOS>MOLECULE
ZINC000492313853
 51 53 1 0 0
SMALL
USER_CHARGES


@<TRIPOS>ATOM
      1 C1         -9.9156    3.7343   53.3830 C.3     1  ZINC000492313853    0.0900
      2 N2         -9.1399    2.5082   53.1796 N.pl3   1  ZINC000492313853   -0.6200
      3 C3         -7.6921    2.5119   53.4032 C.3     1  ZINC000492313853    0.1000
      4 C4         -9.7777    1.3414   52.7746 C.ar    1  ZINC000492313853    0.4100
      5 C5         -9.0371    0.1778   52.5954 C.ar    1  ZINC000492313853   -0.2400
      6 C6         -9.6846   -0.9765   52.1925 C.ar    1  ZINC000492313853   -0.0100
      7 C7        -11.0560   -0.9277   51.9818 C.ar    1  ZINC000492313853   -0.2300
      8 C8        -11.8030   -2.1608   51.5430 C.3     1  ZINC000492313853    0.2000
      9 N9        -12.7225   -2.5784   52.6044 N.am    1  ZINC000492313853   -0.7300
     10 C10       -12.2438   -2.9006   53.8224 C.2     1  ZINC000492313853    0.7100
     11 O11       -11.0491   -2.8435   54.0408 O.2     1  ZINC000492313853   -0.5600
     12 N12       -13.0896   -3.2863   54.7984 N.am    1  ZINC000492313853   -0.6600
     13 C13       -12.5940   -3.6215   56.0587 C.2     1  ZINC000492313853    0.3300
     14 C14       -11.7342   -2.8797   56.8051 C.2     1  ZINC000492313853   -0.2600
     15 C15       -11.4919   -3.5780   58.0028 C.2     1  ZINC000492313853    0.1200
     16 C16       -10.6098   -3.1298   59.1089 C.ar    1  ZINC000492313853   -0.0100
     17 C17        -9.4400   -3.8291   59.3974 C.ar    1  ZINC000492313853   -0.0600
     18 C18        -8.6229   -3.4076   60.4270 C.ar    1  ZINC000492313853   -0.1200
     19 C19        -8.9636   -2.2931   61.1715 C.ar    1  ZINC000492313853   -0.0700
     20 C20       -10.1241   -1.5947   60.8894 C.ar    1  ZINC000492313853   -0.1900
     21 C21       -10.4886   -0.3809   61.7046 C.3     1  ZINC000492313853    0.5100
     22 F22       -11.8460   -0.4345   62.0395 F       1  ZINC000492313853   -0.1800
     23 F23        -9.7206   -0.3565   62.8737 F       1  ZINC000492313853   -0.1800
     24 F24       -10.2380    0.7751   60.9577 F       1  ZINC000492313853   -0.1800
     25 C25       -10.9456   -2.0044   59.8589 C.ar    1  ZINC000492313853   -0.0400
     26 N26       -12.1833   -4.6975   57.9716 N.2     1  ZINC000492313853   -0.2700
     27 N27       -12.8888   -4.7455   56.7628 N.pl3   1  ZINC000492313853   -0.3900
     28 C28       -13.7812   -5.8235   56.3292 C.3     1  ZINC000492313853    0.1000
     29 C29       -11.7286    0.2618   52.1788 C.ar    1  ZINC000492313853    0.1700
     30 N30       -11.0858    1.3463   52.5683 N.ar    1  ZINC000492313853   -0.5400
     31 H31        -9.9570    4.2970   52.4504 H       1  ZINC000492313853    0.0600
     32 H32       -10.9272    3.4764   53.6968 H       1  ZINC000492313853    0.0700
     33 H33        -9.4400    4.3417   54.1531 H       1  ZINC000492313853    0.0700
     34 H34        -7.3750    3.5075   53.7139 H       1  ZINC000492313853    0.0700
     35 H35        -7.4429    1.7916   54.1824 H       1  ZINC000492313853    0.0600
     36 H36        -7.1812    2.2396   52.4797 H       1  ZINC000492313853    0.0600
     37 H37        -7.9710    0.1754   52.7680 H       1  ZINC000492313853    0.1300
     38 H38        -9.1356   -1.8948   52.0449 H       1  ZINC000492313853    0.1400
     39 H39       -12.3691   -1.9399   50.6381 H       1  ZINC000492313853    0.0800
     40 H40       -11.0932   -2.9629   51.3408 H       1  ZINC000492313853    0.0800
     41 H41       -13.6757   -2.6228   52.4305 H       1  ZINC000492313853    0.4000
     42 H42       -14.0429   -3.3307   54.6245 H       1  ZINC000492313853    0.4100
     43 H43       -11.3118   -1.9251   56.5283 H       1  ZINC000492313853    0.1800
     44 H44        -9.1732   -4.6999   58.8168 H       1  ZINC000492313853    0.1400
     45 H45        -7.7160   -3.9493   60.6517 H       1  ZINC000492313853    0.1400
     46 H46        -8.3217   -1.9668   61.9764 H       1  ZINC000492313853    0.1400
     47 H47       -11.8512   -1.4585   59.6394 H       1  ZINC000492313853    0.1400
     48 H48       -14.7960   -5.6128   56.6663 H       1  ZINC000492313853    0.0800
     49 H49       -13.7665   -5.8918   55.2414 H       1  ZINC000492313853    0.0800
     50 H50       -13.4448   -6.7678   56.7572 H       1  ZINC000492313853    0.1000
     51 H51       -12.7955    0.3042   52.0161 H       1  ZINC000492313853    0.1600
@<TRIPOS>BOND
     1     1     2    1
     2     1    31    1
     3     1    32    1
     4     1    33    1
     5     2     3    1
     6     2     4    1
     7     3    34    1
     8     3    35    1
     9     3    36    1
    10     4    30   ar
    11     4     5   ar
    12     5     6   ar
    13     5    37    1
    14     6     7   ar
    15     6    38    1
    16     7     8    1
    17     7    29   ar
    18     8     9    1
    19     8    39    1
    20     8    40    1
    21     9    10   am
    22     9    41    1
    23    10    11    2
    24    10    12   am
    25    12    13    1
    26    12    42    1
    27    13    27    1
    28    13    14    2
    29    14    15    1
    30    14    43    1
    31    15    16    1
    32    15    26    2
    33    16    25   ar
    34    16    17   ar
    35    17    18   ar
    36    17    44    1
    37    18    19   ar
    38    18    45    1
    39    19    20   ar
    40    19    46    1
    41    20    21    1
    42    20    25   ar
    43    21    22    1
    44    21    23    1
    45    21    24    1
    46    25    47    1
    47    26    27    1
    48    27    28    1
    49    28    48    1
    50    28    49    1
    51    28    50    1
    52    29    30   ar
    53    29    51    1
@<TRIPOS>SUBSTRUCTURE
     1 ZINC000492313853        1 TEMP              0 ****  ****    0 ROOT


##########                                Name:    ZINC000050607728
##########                DOCK_Rotatable_Bonds:                  10
##########                         Heavy_Atoms:                  31
##########                    Molecular_Weight:             416.476
##########                DOCK_Rotatable_Bonds:                  10
##########                       Formal_Charge:          -0.0199995
##########                     HBond_Acceptors:                   6
##########                        HBond_Donors:                   1
##########                         Heavy_Atoms:                  31
##########                          Grid_Score:          -35.812263
##########                     Grid_vdw_energy:          -35.985813
##########                      Grid_es_energy:            0.173548
##########           Internal_energy_repulsive:           15.885487

@<TRIPOS>MOLECULE
ZINC000050607728
 55 57 1 0 0
SMALL
USER_CHARGES


@<TRIPOS>ATOM
      1 C1        -11.2811   -3.6807   55.2024 C.3     1  ZINC000050607728    0.0800
      2 N2        -12.4304   -4.2370   55.9207 N.am    1  ZINC000050607728   -0.6200
      3 C3        -13.5396   -4.8368   55.1752 C.3     1  ZINC000050607728    0.0700
      4 C4        -12.4672   -4.1968   57.2674 C.2     1  ZINC000050607728    0.5600
      5 O5        -13.4207   -4.6583   57.8633 O.2     1  ZINC000050607728   -0.5300
      6 C6        -11.3477   -3.5915   58.0197 C.ar    1  ZINC000050607728   -0.1400
      7 C7        -10.3864   -4.4050   58.6212 C.ar    1  ZINC000050607728   -0.0800
      8 C8         -9.3439   -3.8337   59.3215 C.ar    1  ZINC000050607728   -0.1300
      9 C9         -9.2506   -2.4576   59.4287 C.ar    1  ZINC000050607728   -0.0700
     10 C10       -10.2007   -1.6452   58.8352 C.ar    1  ZINC000050607728   -0.1100
     11 C11       -10.0914   -0.1471   58.9576 C.3     1  ZINC000050607728    0.1100
     12 O12        -9.4127    0.3856   57.7898 O.3     1  ZINC000050607728   -0.3400
     13 C13        -9.5001    1.7094   57.5853 C.2     1  ZINC000050607728    0.4700
     14 O14       -10.1842    2.3893   58.3130 O.2     1  ZINC000050607728   -0.5000
     15 C15        -8.7449    2.3475   56.4479 C.3     1  ZINC000050607728    0.2000
     16 H16        -9.0750    3.3791   56.3260 H       1  ZINC000050607728    0.1400
     17 N17        -7.3097    2.3255   56.7415 N.am    1  ZINC000050607728   -0.7100
     18 C18        -6.7502    3.3301   57.4443 C.2     1  ZINC000050607728    0.5700
     19 O19        -7.4364    4.2537   57.8360 O.2     1  ZINC000050607728   -0.5200
     20 C20        -5.3015    3.3087   57.7390 C.ar    1  ZINC000050607728   -0.1400
     21 C21        -4.4946    2.2972   57.2155 C.ar    1  ZINC000050607728   -0.0800
     22 C22        -3.1435    2.2834   57.4940 C.ar    1  ZINC000050607728   -0.1300
     23 C23        -2.5880    3.2690   58.2904 C.ar    1  ZINC000050607728   -0.0900
     24 C24        -3.3824    4.2742   58.8127 C.ar    1  ZINC000050607728   -0.1300
     25 C25        -4.7338    4.3032   58.5369 C.ar    1  ZINC000050607728   -0.0600
     26 C26        -9.0095    1.5819   55.1771 C.ar    1  ZINC000050607728   -0.1000
     27 C27       -10.1870    0.8731   55.0297 C.ar    1  ZINC000050607728   -0.1000
     28 C28       -10.4297    0.1709   53.8639 C.ar    1  ZINC000050607728   -0.1200
     29 C29        -9.4950    0.1778   52.8456 C.ar    1  ZINC000050607728   -0.1100
     30 C30        -8.3178    0.8873   52.9927 C.ar    1  ZINC000050607728   -0.1200
     31 C31        -8.0770    1.5931   54.1567 C.ar    1  ZINC000050607728   -0.0800
     32 C32       -11.2445   -2.2035   58.1270 C.ar    1  ZINC000050607728   -0.0400
     33 H33       -11.4635   -2.6284   54.9843 H       1  ZINC000050607728    0.0600
     34 H34       -10.3872   -3.7741   55.8192 H       1  ZINC000050607728    0.0800
     35 H35       -11.1373   -4.2255   54.2694 H       1  ZINC000050607728    0.0700
     36 H36       -13.3087   -5.8794   54.9564 H       1  ZINC000050607728    0.0600
     37 H37       -14.4497   -4.7840   55.7728 H       1  ZINC000050607728    0.0800
     38 H38       -13.6860   -4.2934   54.2417 H       1  ZINC000050607728    0.0700
     39 H39       -10.4585   -5.4795   58.5388 H       1  ZINC000050607728    0.1400
     40 H40        -8.5992   -4.4621   59.7874 H       1  ZINC000050607728    0.1400
     41 H41        -8.4329   -2.0154   59.9784 H       1  ZINC000050607728    0.1300
     42 H42       -11.0895    0.2855   59.0267 H       1  ZINC000050607728    0.0900
     43 H43        -9.5238    0.1037   59.8537 H       1  ZINC000050607728    0.0900
     44 H44        -6.7622    1.5878   56.4299 H       1  ZINC000050607728    0.4100
     45 H45        -4.9271    1.5268   56.5943 H       1  ZINC000050607728    0.1300
     46 H46        -2.5180    1.5012   57.0897 H       1  ZINC000050607728    0.1300
     47 H47        -1.5298    3.2534   58.5056 H       1  ZINC000050607728    0.1300
     48 H48        -2.9427    5.0405   59.4340 H       1  ZINC000050607728    0.1300
     49 H49        -5.3527    5.0887   58.9450 H       1  ZINC000050607728    0.1400
     50 H50       -10.9173    0.8678   55.8253 H       1  ZINC000050607728    0.1200
     51 H51       -11.3495   -0.3834   53.7490 H       1  ZINC000050607728    0.1200
     52 H52        -9.6843   -0.3714   51.9351 H       1  ZINC000050607728    0.1200
     53 H53        -7.5873    0.8925   52.1971 H       1  ZINC000050607728    0.1300
     54 H54        -7.1573    2.1474   54.2716 H       1  ZINC000050607728    0.1300
     55 H55       -11.9852   -1.5684   57.6639 H       1  ZINC000050607728    0.1300
@<TRIPOS>BOND
     1     1     2    1
     2     1    33    1
     3     1    34    1
     4     1    35    1
     5     2     3    1
     6     2     4   am
     7     3    36    1
     8     3    37    1
     9     3    38    1
    10     4     5    2
    11     4     6    1
    12     6    32   ar
    13     6     7   ar
    14     7     8   ar
    15     7    39    1
    16     8     9   ar
    17     8    40    1
    18     9    10   ar
    19     9    41    1
    20    10    11    1
    21    10    32   ar
    22    11    12    1
    23    11    42    1
    24    11    43    1
    25    12    13    1
    26    13    14    2
    27    13    15    1
    28    15    16    1
    29    15    17    1
    30    15    26    1
    31    17    18   am
    32    17    44    1
    33    18    19    2
    34    18    20    1
    35    20    25   ar
    36    20    21   ar
    37    21    22   ar
    38    21    45    1
    39    22    23   ar
    40    22    46    1
    41    23    24   ar
    42    23    47    1
    43    24    25   ar
    44    24    48    1
    45    25    49    1
    46    26    31   ar
    47    26    27   ar
    48    27    28   ar
    49    27    50    1
    50    28    29   ar
    51    28    51    1
    52    29    30   ar
    53    29    52    1
    54    30    31   ar
    55    30    53    1
    56    31    54    1
    57    32    55    1
@<TRIPOS>SUBSTRUCTURE
     1 ZINC000050607728        1 TEMP              0 ****  ****    0 ROOT


##########                                Name:    ZINC000562561773
##########                DOCK_Rotatable_Bonds:                   6
##########                         Heavy_Atoms:                  26
##########                    Molecular_Weight:             371.466
##########                DOCK_Rotatable_Bonds:                   6
##########                       Formal_Charge:           0.0199999
##########                     HBond_Acceptors:                   9
##########                        HBond_Donors:                   0
##########                         Heavy_Atoms:                  26
##########                          Grid_Score:          -35.783905
##########                     Grid_vdw_energy:          -34.812424
##########                      Grid_es_energy:           -0.971480
##########           Internal_energy_repulsive:            8.725011

@<TRIPOS>MOLECULE
ZINC000562561773
 47 50 1 0 0
SMALL
USER_CHARGES


@<TRIPOS>ATOM
      1 C1        -13.1808   -1.9262   51.9092 C.3     1  ZINC000562561773   -0.1100
      2 C2        -12.5848   -2.3860   53.2148 C.ar    1  ZINC000562561773   -0.0400
      3 C3        -12.9950   -3.5795   53.7771 C.ar    1  ZINC000562561773   -0.1200
      4 C4        -12.4528   -4.0064   54.9733 C.ar    1  ZINC000562561773   -0.0700
      5 C5        -11.4890   -3.2333   55.6173 C.ar    1  ZINC000562561773   -0.0300
      6 C6        -10.9051   -3.6912   56.9028 C.2     1  ZINC000562561773    0.2200
      7 N7        -10.7770   -4.9306   57.2994 N.2     1  ZINC000562561773   -0.3700
      8 O8        -10.2617   -4.9660   58.3967 O.3     1  ZINC000562561773    0.0900
      9 C9        -10.0029   -3.7251   58.8212 C.2     1  ZINC000562561773    0.1900
     10 C10        -9.3662   -3.3421   60.1322 C.3     1  ZINC000562561773   -0.0100
     11 C11        -9.8292   -1.9403   60.5338 C.3     1  ZINC000562561773   -0.1200
     12 S12        -8.9439   -1.4159   62.0229 S.3     1  ZINC000562561773    0.0600
     13 C13        -9.6513    0.1814   62.2529 C.2     1  ZINC000562561773    0.2100
     14 N14       -10.5647    0.7482   61.4948 N.2     1  ZINC000562561773   -0.3300
     15 N15       -10.8604    1.9148   61.9428 N.2     1  ZINC000562561773   -0.0300
     16 N16       -10.1715    2.1764   63.0005 N.2     1  ZINC000562561773   -0.0700
     17 N17        -9.3612    1.0543   63.2465 N.pl3   1  ZINC000562561773   -0.3600
     18 C18        -8.4019    0.8720   64.3386 C.3     1  ZINC000562561773    0.0800
     19 N19       -10.4006   -2.9050   57.8805 N.2     1  ZINC000562561773   -0.4600
     20 C20       -11.0747   -2.0304   55.0519 C.ar    1  ZINC000562561773   -0.1100
     21 C21       -11.6198   -1.6111   53.8474 C.ar    1  ZINC000562561773    0.0800
     22 N22       -11.2070   -0.4051   53.2757 N.3     1  ZINC000562561773   -0.4800
     23 C23       -11.4409    0.7312   54.2033 C.3     1  ZINC000562561773    0.0400
     24 C24       -10.4862    1.8280   53.6682 C.3     1  ZINC000562561773   -0.1200
     25 C25        -9.2422    1.0206   53.2319 C.3     1  ZINC000562561773   -0.1300
     26 C26        -9.7522   -0.4153   53.0093 C.3     1  ZINC000562561773    0.0400
     27 H27       -12.5872   -2.3151   51.0819 H       1  ZINC000562561773    0.0700
     28 H28       -14.2035   -2.2943   51.8270 H       1  ZINC000562561773    0.0600
     29 H29       -13.1827   -0.8368   51.8744 H       1  ZINC000562561773    0.0800
     30 H30       -13.7422   -4.1803   53.2798 H       1  ZINC000562561773    0.1400
     31 H31       -12.7763   -4.9398   55.4098 H       1  ZINC000562561773    0.1400
     32 H32        -9.6605   -4.0562   60.9014 H       1  ZINC000562561773    0.1200
     33 H33        -8.2815   -3.3498   60.0253 H       1  ZINC000562561773    0.1300
     34 H34        -9.6210   -1.2426   59.7227 H       1  ZINC000562561773    0.1100
     35 H35       -10.9005   -1.9549   60.7343 H       1  ZINC000562561773    0.1100
     36 H36        -8.9055    0.4197   65.1929 H       1  ZINC000562561773    0.1000
     37 H37        -7.5932    0.2206   64.0069 H       1  ZINC000562561773    0.1000
     38 H38        -7.9931    1.8400   64.6284 H       1  ZINC000562561773    0.1100
     39 H39       -10.3282   -1.4276   55.5476 H       1  ZINC000562561773    0.1300
     40 H40       -12.4775    1.0641   54.1503 H       1  ZINC000562561773    0.0900
     41 H41       -11.1760    0.4553   55.2241 H       1  ZINC000562561773    0.0500
     42 H42       -10.9299    2.3433   52.8163 H       1  ZINC000562561773    0.0800
     43 H43       -10.2301    2.5350   54.4572 H       1  ZINC000562561773    0.0700
     44 H44        -8.8344    1.4251   52.3054 H       1  ZINC000562561773    0.0800
     45 H45        -8.4865    1.0362   54.0173 H       1  ZINC000562561773    0.0700
     46 H46        -9.2535   -1.0974   53.6979 H       1  ZINC000562561773    0.0500
     47 H47        -9.5654   -0.7203   51.9797 H       1  ZINC000562561773    0.0800
@<TRIPOS>BOND
     1     1     2    1
     2     1    27    1
     3     1    28    1
     4     1    29    1
     5     2    21   ar
     6     2     3   ar
     7     3     4   ar
     8     3    30    1
     9     4     5   ar
    10     4    31    1
    11     5     6    1
    12     5    20   ar
    13     6    19    1
    14     6     7    2
    15     7     8    1
    16     8     9    1
    17     9    10    1
    18     9    19    2
    19    10    11    1
    20    10    32    1
    21    10    33    1
    22    11    12    1
    23    11    34    1
    24    11    35    1
    25    12    13    1
    26    13    17    1
    27    13    14    2
    28    14    15    1
    29    15    16    2
    30    16    17    1
    31    17    18    1
    32    18    36    1
    33    18    37    1
    34    18    38    1
    35    20    21   ar
    36    20    39    1
    37    21    22    1
    38    22    26    1
    39    22    23    1
    40    23    24    1
    41    23    40    1
    42    23    41    1
    43    24    25    1
    44    24    42    1
    45    24    43    1
    46    25    26    1
    47    25    44    1
    48    25    45    1
    49    26    46    1
    50    26    47    1
@<TRIPOS>SUBSTRUCTURE
     1 ZINC000562561773        1 TEMP              0 ****  ****    0 ROOT


##########                                Name:    ZINC000558213406
##########                DOCK_Rotatable_Bonds:                   8
##########                         Heavy_Atoms:                  30
##########                    Molecular_Weight:               408.5
##########                DOCK_Rotatable_Bonds:                   8
##########                       Formal_Charge:          -0.0299987
##########                     HBond_Acceptors:                   7
##########                        HBond_Donors:                   2
##########                         Heavy_Atoms:                  30
##########                          Grid_Score:          -35.728622
##########                     Grid_vdw_energy:          -33.310490
##########                      Grid_es_energy:           -2.418132
##########           Internal_energy_repulsive:           12.358925

@<TRIPOS>MOLECULE
ZINC000558213406
 58 61 1 0 0
SMALL
USER_CHARGES


@<TRIPOS>ATOM
      1 O1        -11.3143   -0.4445   60.2126 O.2     1  ZINC000558213406   -0.5700
      2 C2        -10.1931   -0.7826   60.5399 C.2     1  ZINC000558213406    0.7100
      3 N3         -9.5529   -1.7490   59.8523 N.am    1  ZINC000558213406   -0.6800
      4 C4        -10.1818   -2.3682   58.7637 C.ar    1  ZINC000558213406    0.1700
      5 C5        -10.5755   -1.6126   57.6674 C.ar    1  ZINC000558213406   -0.1300
      6 C6        -11.1946   -2.2233   56.5948 C.ar    1  ZINC000558213406   -0.1100
      7 C7        -11.4237   -3.5916   56.6126 C.ar    1  ZINC000558213406    0.0600
      8 O8        -12.0337   -4.1923   55.5565 O.3     1  ZINC000558213406   -0.2500
      9 C9        -11.8445   -3.6573   54.3217 C.ar    1  ZINC000558213406    0.0700
     10 C10       -12.8640   -2.9457   53.6973 C.ar    1  ZINC000558213406   -0.1500
     11 C11       -12.6238   -2.4191   52.4383 C.ar    1  ZINC000558213406   -0.1300
     12 C12       -11.3893   -2.6160   51.8487 C.ar    1  ZINC000558213406    0.0600
     13 N13       -10.4440   -3.2961   52.4676 N.ar    1  ZINC000558213406   -0.4500
     14 C14       -10.6297   -3.8080   53.6679 C.ar    1  ZINC000558213406    0.0800
     15 C15       -11.0299   -4.3471   57.7077 C.ar    1  ZINC000558213406   -0.1000
     16 C16       -10.4061   -3.7383   58.7786 C.ar    1  ZINC000558213406   -0.1100
     17 N17        -9.5883   -0.1871   61.5868 N.am    1  ZINC000558213406   -0.7300
     18 C18       -10.2842    0.8634   62.3343 C.3     1  ZINC000558213406    0.1500
     19 H19       -10.5357    1.6981   61.6799 H       1  ZINC000558213406    0.1100
     20 C20       -11.5572    0.2989   63.0182 C.3     1  ZINC000558213406   -0.1400
     21 C21       -11.7229    1.2682   64.2153 C.3     1  ZINC000558213406    0.1000
     22 N22       -10.3472    1.5589   64.6586 N.am    1  ZINC000558213406   -0.6200
     23 C23        -9.9883    1.9590   65.8945 C.2     1  ZINC000558213406    0.5400
     24 O24       -10.8323    2.1079   66.7527 O.2     1  ZINC000558213406   -0.5300
     25 C25        -8.5382    2.2215   66.2101 C.3     1  ZINC000558213406   -0.1000
     26 C26        -8.4386    3.3013   67.2894 C.3     1  ZINC000558213406   -0.1100
     27 C27        -6.9664    3.5678   67.6097 C.3     1  ZINC000558213406   -0.1200
     28 C28        -6.3132    2.2798   68.1151 C.3     1  ZINC000558213406   -0.1200
     29 C29        -6.4130    1.2000   67.0358 C.3     1  ZINC000558213406   -0.1200
     30 C30        -7.8852    0.9336   66.7154 C.3     1  ZINC000558213406   -0.1100
     31 C31        -9.4296    1.3425   63.5266 C.3     1  ZINC000558213406    0.1000
     32 H32        -8.6570   -2.0159   60.1109 H       1  ZINC000558213406    0.4100
     33 H33       -10.3979   -0.5475   57.6538 H       1  ZINC000558213406    0.1300
     34 H34       -11.5009   -1.6356   55.7420 H       1  ZINC000558213406    0.1400
     35 H35       -13.8193   -2.8076   54.1817 H       1  ZINC000558213406    0.1400
     36 H36       -13.3923   -1.8614   51.9237 H       1  ZINC000558213406    0.1400
     37 H37       -11.1964   -2.2078   50.8675 H       1  ZINC000558213406    0.1600
     38 H38        -9.8316   -4.3588   54.1434 H       1  ZINC000558213406    0.1700
     39 H39       -11.2085   -5.4123   57.7210 H       1  ZINC000558213406    0.1400
     40 H40       -10.0994   -4.3266   59.6308 H       1  ZINC000558213406    0.1500
     41 H41        -8.6923   -0.4540   61.8454 H       1  ZINC000558213406    0.4000
     42 H42       -12.4165    0.3532   62.3498 H       1  ZINC000558213406    0.0900
     43 H43       -11.3957   -0.7226   63.3622 H       1  ZINC000558213406    0.0800
     44 H44       -12.2200    2.1841   63.8957 H       1  ZINC000558213406    0.0700
     45 H45       -12.2863    0.7893   65.0160 H       1  ZINC000558213406    0.0800
     46 H46        -8.0259    2.5595   65.3094 H       1  ZINC000558213406    0.0900
     47 H47        -8.9039    4.2190   66.9293 H       1  ZINC000558213406    0.0600
     48 H48        -8.9511    2.9633   68.1900 H       1  ZINC000558213406    0.0700
     49 H49        -6.4540    3.9059   66.7091 H       1  ZINC000558213406    0.0600
     50 H50        -6.8954    4.3371   68.3786 H       1  ZINC000558213406    0.0700
     51 H51        -5.2645    2.4697   68.3434 H       1  ZINC000558213406    0.0600
     52 H52        -6.8257    1.9418   69.0158 H       1  ZINC000558213406    0.0600
     53 H53        -5.9005    1.5380   66.1352 H       1  ZINC000558213406    0.0600
     54 H54        -5.9476    0.2824   67.3959 H       1  ZINC000558213406    0.0700
     55 H55        -8.3976    0.5954   67.6161 H       1  ZINC000558213406    0.0800
     56 H56        -7.9562    0.1643   65.9465 H       1  ZINC000558213406    0.0600
     57 H57        -8.6962    0.5787   63.7848 H       1  ZINC000558213406    0.0800
     58 H58        -8.9241    2.2751   63.2757 H       1  ZINC000558213406    0.0800
@<TRIPOS>BOND
     1     1     2    2
     2     2     3   am
     3     2    17   am
     4     3     4    1
     5     3    32    1
     6     4    16   ar
     7     4     5   ar
     8     5     6   ar
     9     5    33    1
    10     6     7   ar
    11     6    34    1
    12     7     8    1
    13     7    15   ar
    14     8     9    1
    15     9    14   ar
    16     9    10   ar
    17    10    11   ar
    18    10    35    1
    19    11    12   ar
    20    11    36    1
    21    12    13   ar
    22    12    37    1
    23    13    14   ar
    24    14    38    1
    25    15    16   ar
    26    15    39    1
    27    16    40    1
    28    17    18    1
    29    17    41    1
    30    18    19    1
    31    18    31    1
    32    18    20    1
    33    20    21    1
    34    20    42    1
    35    20    43    1
    36    21    22    1
    37    21    44    1
    38    21    45    1
    39    22    23   am
    40    22    31    1
    41    23    24    2
    42    23    25    1
    43    25    30    1
    44    25    26    1
    45    25    46    1
    46    26    27    1
    47    26    47    1
    48    26    48    1
    49    27    28    1
    50    27    49    1
    51    27    50    1
    52    28    29    1
    53    28    51    1
    54    28    52    1
    55    29    30    1
    56    29    53    1
    57    29    54    1
    58    30    55    1
    59    30    56    1
    60    31    57    1
    61    31    58    1
@<TRIPOS>SUBSTRUCTURE
     1 ZINC000558213406        1 TEMP              0 ****  ****    0 ROOT


##########                                Name:    ZINC001120957943
##########                DOCK_Rotatable_Bonds:                   4
##########                         Heavy_Atoms:                  27
##########                    Molecular_Weight:             396.802
##########                DOCK_Rotatable_Bonds:                   4
##########                       Formal_Charge:          -0.0199996
##########                     HBond_Acceptors:                  10
##########                        HBond_Donors:                   0
##########                         Heavy_Atoms:                  27
##########                          Grid_Score:          -35.722282
##########                     Grid_vdw_energy:          -35.390282
##########                      Grid_es_energy:           -0.332001
##########           Internal_energy_repulsive:           11.112302

@<TRIPOS>MOLECULE
ZINC001120957943
 43 46 1 0 0
SMALL
USER_CHARGES


@<TRIPOS>ATOM
      1 C1        -11.0863   -3.7747   53.2381 C.3     1  ZINC001120957943    0.0900
      2 N2        -11.9118   -3.6949   54.4458 N.pl3   1  ZINC001120957943   -0.6000
      3 C3        -13.2975   -4.1697   54.4187 C.3     1  ZINC001120957943    0.2200
      4 C4        -13.7307   -4.5351   55.8150 C.2     1  ZINC001120957943    0.1600
      5 N5        -13.5568   -5.6893   56.4061 N.2     1  ZINC001120957943   -0.2500
      6 N6        -14.0520   -5.6482   57.5956 N.2     1  ZINC001120957943   -0.2800
      7 C7        -14.5605   -4.4735   57.8127 C.2     1  ZINC001120957943    0.1700
      8 C8        -15.2484   -3.9624   59.0535 C.3     1  ZINC001120957943   -0.0300
      9 C9        -16.0116   -2.6833   58.6839 C.3     1  ZINC001120957943   -0.1300
     10 C10       -15.0838   -1.7479   57.9032 C.3     1  ZINC001120957943   -0.1500
     11 H11       -14.1479   -1.6267   58.4487 H       1  ZINC001120957943    0.1300
     12 C12       -15.7573   -0.3842   57.7373 C.3     1  ZINC001120957943    0.4600
     13 F13       -15.9425    0.2005   58.9947 F       1  ZINC001120957943   -0.1700
     14 F14       -14.9470    0.4437   56.9528 F       1  ZINC001120957943   -0.1800
     15 F15       -16.9981   -0.5498   57.1127 F       1  ZINC001120957943   -0.1800
     16 C16       -14.7955   -2.3460   56.5213 C.3     1  ZINC001120957943    0.1100
     17 N17       -14.3650   -3.7333   56.6920 N.pl3   1  ZINC001120957943   -0.4700
     18 C18       -11.3814   -3.1698   55.6150 C.ar    1  ZINC001120957943    0.3700
     19 C19       -11.2276   -1.7788   55.7481 C.ar    1  ZINC001120957943    0.0500
     20 N20       -10.7284   -1.2643   56.8460 N.ar    1  ZINC001120957943   -0.3900
     21 C21       -10.3608   -2.0682   57.8517 C.ar    1  ZINC001120957943    0.0400
     22 C22        -9.8238   -1.5418   59.0386 C.ar    1  ZINC001120957943   -0.0600
     23 C23        -9.4585   -2.3828   60.0460 C.ar    1  ZINC001120957943   -0.0400
     24 Cl24       -8.7957   -1.7270   61.5104 Cl      1  ZINC001120957943   -0.0600
     25 C25        -9.6099   -3.7632   59.9177 C.ar    1  ZINC001120957943   -0.0800
     26 C26       -10.1264   -4.3075   58.7823 C.ar    1  ZINC001120957943   -0.0800
     27 C27       -10.5141   -3.4708   57.7217 C.ar    1  ZINC001120957943    0.1400
     28 N28       -11.0300   -3.9794   56.5960 N.ar    1  ZINC001120957943   -0.4700
     29 H29       -11.1974   -2.8568   52.6608 H       1  ZINC001120957943    0.0700
     30 H30       -10.0413   -3.9022   53.5201 H       1  ZINC001120957943    0.0800
     31 H31       -11.4062   -4.6243   52.6349 H       1  ZINC001120957943    0.0700
     32 H32       -13.9439   -3.3818   54.0320 H       1  ZINC001120957943    0.1200
     33 H33       -13.3685   -5.0465   53.7750 H       1  ZINC001120957943    0.1000
     34 H34       -15.9464   -4.7136   59.4231 H       1  ZINC001120957943    0.1100
     35 H35       -14.5065   -3.7397   59.8203 H       1  ZINC001120957943    0.1000
     36 H36       -16.8733   -2.9390   58.0672 H       1  ZINC001120957943    0.0900
     37 H37       -16.3491   -2.1854   59.5929 H       1  ZINC001120957943    0.1000
     38 H38       -15.6990   -2.3121   55.9125 H       1  ZINC001120957943    0.1000
     39 H39       -14.0029   -1.7773   56.0349 H       1  ZINC001120957943    0.1100
     40 H40       -11.5229   -1.1279   54.9384 H       1  ZINC001120957943    0.1700
     41 H41        -9.7011   -0.4748   59.1517 H       1  ZINC001120957943    0.1500
     42 H42        -9.3128   -4.4093   60.7306 H       1  ZINC001120957943    0.1400
     43 H43       -10.2377   -5.3783   58.6965 H       1  ZINC001120957943    0.1500
@<TRIPOS>BOND
     1     1     2    1
     2     1    29    1
     3     1    30    1
     4     1    31    1
     5     2     3    1
     6     2    18    1
     7     3     4    1
     8     3    32    1
     9     3    33    1
    10     4    17    1
    11     4     5    2
    12     5     6    1
    13     6     7    2
    14     7    17    1
    15     7     8    1
    16     8     9    1
    17     8    34    1
    18     8    35    1
    19     9    10    1
    20     9    36    1
    21     9    37    1
    22    10    11    1
    23    10    12    1
    24    10    16    1
    25    12    13    1
    26    12    14    1
    27    12    15    1
    28    16    17    1
    29    16    38    1
    30    16    39    1
    31    18    28   ar
    32    18    19   ar
    33    19    20   ar
    34    19    40    1
    35    20    21   ar
    36    21    27   ar
    37    21    22   ar
    38    22    23   ar
    39    22    41    1
    40    23    24    1
    41    23    25   ar
    42    25    26   ar
    43    25    42    1
    44    26    27   ar
    45    26    43    1
    46    27    28   ar
@<TRIPOS>SUBSTRUCTURE
     1 ZINC001120957943        1 TEMP              0 ****  ****    0 ROOT


##########                                Name:    ZINC000465642058
##########                DOCK_Rotatable_Bonds:                  10
##########                         Heavy_Atoms:                  31
##########                    Molecular_Weight:             420.511
##########                DOCK_Rotatable_Bonds:                  10
##########                       Formal_Charge:          1.2666e-07
##########                     HBond_Acceptors:                   7
##########                        HBond_Donors:                   2
##########                         Heavy_Atoms:                  31
##########                          Grid_Score:          -35.713463
##########                     Grid_vdw_energy:          -33.984585
##########                      Grid_es_energy:           -1.728878
##########           Internal_energy_repulsive:           16.253626

@<TRIPOS>MOLECULE
ZINC000465642058
 59 62 1 0 0
SMALL
USER_CHARGES


@<TRIPOS>ATOM
      1 C1         -8.5395    2.0535   57.5246 C.3     1  ZINC000465642058   -0.1500
      2 C2         -9.5686    1.0187   57.9843 C.3     1  ZINC000465642058    0.0500
      3 O3         -8.9935   -0.2876   57.9167 O.3     1  ZINC000465642058   -0.3000
      4 C4         -9.8453   -1.3272   57.7095 C.ar    1  ZINC000465642058    0.1200
      5 C5        -10.5952   -1.3928   56.5436 C.ar    1  ZINC000465642058   -0.1600
      6 C6        -11.4555   -2.4487   56.3382 C.ar    1  ZINC000465642058   -0.1300
      7 C7        -11.5808   -3.4589   57.2826 C.ar    1  ZINC000465642058    0.0700
      8 C8        -10.8292   -3.3852   58.4527 C.ar    1  ZINC000465642058   -0.0700
      9 C9         -9.9650   -2.3307   58.6597 C.ar    1  ZINC000465642058   -0.1100
     10 C10        -9.1562   -2.2617   59.9295 C.3     1  ZINC000465642058    0.1900
     11 N11        -9.6496   -1.1632   60.7637 N.am    1  ZINC000465642058   -0.7300
     12 C12       -10.8674   -1.2454   61.3352 C.2     1  ZINC000465642058    0.7100
     13 O13       -11.5571   -2.2309   61.1572 O.2     1  ZINC000465642058   -0.5900
     14 N14       -11.3207   -0.2355   62.1040 N.am    1  ZINC000465642058   -0.6200
     15 C15       -10.4888    0.9509   62.3200 C.3     1  ZINC000465642058    0.1900
     16 C16        -9.5906    0.7250   63.5088 C.2     1  ZINC000465642058    0.0500
     17 N17        -9.1294   -0.4307   63.9132 N.2     1  ZINC000465642058   -0.2700
     18 N18        -8.3351   -0.2126   65.0463 N.pl3   1  ZINC000465642058   -0.4700
     19 C19        -8.3367    1.1116   65.3061 C.2     1  ZINC000465642058    0.0600
     20 C20        -9.1011    1.7152   64.3668 C.2     1  ZINC000465642058   -0.2600
     21 C21       -12.6452   -0.3242   62.7238 C.3     1  ZINC000465642058    0.1700
     22 C22       -13.6971    0.0712   61.7198 C.ar    1  ZINC000465642058   -0.1100
     23 C23       -14.9643   -0.4761   61.7946 C.ar    1  ZINC000465642058   -0.0900
     24 C24       -15.9292   -0.1133   60.8736 C.ar    1  ZINC000465642058   -0.1200
     25 C25       -15.6271    0.7969   59.8781 C.ar    1  ZINC000465642058   -0.1200
     26 C26       -14.3602    1.3449   59.8039 C.ar    1  ZINC000465642058   -0.1300
     27 C27       -13.3965    0.9854   60.7275 C.ar    1  ZINC000465642058   -0.1100
     28 O28       -12.4638   -4.4114   56.8712 O.3     1  ZINC000465642058   -0.3000
     29 C29       -13.3014   -3.8653   55.8382 C.3     1  ZINC000465642058    0.0800
     30 H30       -14.1967   -3.4135   56.2654 H       1  ZINC000465642058    0.0900
     31 C31       -13.6746   -4.9421   54.8172 C.3     1  ZINC000465642058   -0.1500
     32 C32       -12.3958   -2.7872   55.1975 C.3     1  ZINC000465642058   -0.1100
     33 H33        -8.2431    1.8397   56.4977 H       1  ZINC000465642058    0.0700
     34 H34        -8.9782    3.0499   57.5763 H       1  ZINC000465642058    0.0800
     35 H35        -7.6641    2.0078   58.1725 H       1  ZINC000465642058    0.0700
     36 H36        -9.8650    1.2324   59.0113 H       1  ZINC000465642058    0.0600
     37 H37       -10.4440    1.0643   57.3365 H       1  ZINC000465642058    0.0600
     38 H38       -10.5046   -0.6165   55.7982 H       1  ZINC000465642058    0.1300
     39 H39       -10.9204   -4.1599   59.1998 H       1  ZINC000465642058    0.1400
     40 H40        -9.2519   -3.2018   60.4727 H       1  ZINC000465642058    0.0700
     41 H41        -8.1084   -2.0890   59.6838 H       1  ZINC000465642058    0.0800
     42 H42        -9.0998   -0.3765   60.9047 H       1  ZINC000465642058    0.4000
     43 H43        -9.8803    1.1341   61.4345 H       1  ZINC000465642058    0.1000
     44 H44       -11.1281    1.8138   62.5064 H       1  ZINC000465642058    0.0900
     45 H45        -7.8668   -0.8933   65.5545 H       1  ZINC000465642058    0.4400
     46 H46        -7.8173    1.6022   66.1160 H       1  ZINC000465642058    0.1800
     47 H47        -9.3029    2.7739   64.2960 H       1  ZINC000465642058    0.1500
     48 H48       -12.8241   -1.3476   63.0537 H       1  ZINC000465642058    0.0900
     49 H49       -12.6907    0.3472   63.5813 H       1  ZINC000465642058    0.0900
     50 H50       -15.2004   -1.1873   62.5723 H       1  ZINC000465642058    0.1300
     51 H51       -16.9191   -0.5415   60.9316 H       1  ZINC000465642058    0.1200
     52 H52       -16.3808    1.0798   59.1582 H       1  ZINC000465642058    0.1200
     53 H53       -14.1240    2.0559   59.0260 H       1  ZINC000465642058    0.1200
     54 H54       -12.4067    1.4135   60.6695 H       1  ZINC000465642058    0.1200
     55 H55       -14.2353   -5.7343   55.3132 H       1  ZINC000465642058    0.0700
     56 H56       -14.2871   -4.5006   54.0311 H       1  ZINC000465642058    0.0800
     57 H57       -12.7669   -5.3583   54.3801 H       1  ZINC000465642058    0.0700
     58 H58       -12.9784   -1.9150   54.9011 H       1  ZINC000465642058    0.0900
     59 H59       -11.8470   -3.1940   54.3481 H       1  ZINC000465642058    0.1000
@<TRIPOS>BOND
     1     1     2    1
     2     1    33    1
     3     1    34    1
     4     1    35    1
     5     2     3    1
     6     2    36    1
     7     2    37    1
     8     3     4    1
     9     4     9   ar
    10     4     5   ar
    11     5     6   ar
    12     5    38    1
    13     6    32    1
    14     6     7   ar
    15     7     8   ar
    16     7    28    1
    17     8     9   ar
    18     8    39    1
    19     9    10    1
    20    10    11    1
    21    10    40    1
    22    10    41    1
    23    11    12   am
    24    11    42    1
    25    12    13    2
    26    12    14   am
    27    14    15    1
    28    14    21    1
    29    15    16    1
    30    15    43    1
    31    15    44    1
    32    16    20    1
    33    16    17    2
    34    17    18    1
    35    18    19    1
    36    18    45    1
    37    19    20    2
    38    19    46    1
    39    20    47    1
    40    21    22    1
    41    21    48    1
    42    21    49    1
    43    22    27   ar
    44    22    23   ar
    45    23    24   ar
    46    23    50    1
    47    24    25   ar
    48    24    51    1
    49    25    26   ar
    50    25    52    1
    51    26    27   ar
    52    26    53    1
    53    27    54    1
    54    28    29    1
    55    29    30    1
    56    29    31    1
    57    29    32    1
    58    31    55    1
    59    31    56    1
    60    31    57    1
    61    32    58    1
    62    32    59    1
@<TRIPOS>SUBSTRUCTURE
     1 ZINC000465642058        1 TEMP              0 ****  ****    0 ROOT


##########                                Name:    ZINC000460972051
##########                DOCK_Rotatable_Bonds:                  10
##########                         Heavy_Atoms:                  29
##########                    Molecular_Weight:             417.572
##########                DOCK_Rotatable_Bonds:                  10
##########                       Formal_Charge:         3.31551e-07
##########                     HBond_Acceptors:                   7
##########                        HBond_Donors:                   2
##########                         Heavy_Atoms:                  29
##########                          Grid_Score:          -35.712566
##########                     Grid_vdw_energy:          -35.090527
##########                      Grid_es_energy:           -0.622040
##########           Internal_energy_repulsive:           39.017681

@<TRIPOS>MOLECULE
ZINC000460972051
 60 61 1 0 0
SMALL
USER_CHARGES


@<TRIPOS>ATOM
      1 C1        -15.6342   -2.0848   50.3584 C.3     1  ZINC000460972051   -0.1800
      2 C2        -14.3964   -1.4294   49.7424 C.3     1  ZINC000460972051    0.1000
      3 N3        -14.1095   -0.1743   50.4414 N.am    1  ZINC000460972051   -0.6200
      4 C4        -13.3929   -0.1873   51.5828 C.2     1  ZINC000460972051    0.7100
      5 O5        -13.1535    0.8546   52.1622 O.2     1  ZINC000460972051   -0.5800
      6 N6        -12.9417   -1.3550   52.0819 N.am    1  ZINC000460972051   -0.7400
      7 C7        -12.1642   -1.3693   53.3235 C.3     1  ZINC000460972051    0.2000
      8 H8        -12.5763   -0.6377   54.0187 H       1  ZINC000460972051    0.1100
      9 C9        -12.2309   -2.7631   53.9511 C.3     1  ZINC000460972051    0.1100
     10 N10       -13.4581   -2.8842   54.7421 N.am    1  ZINC000460972051   -1.1200
     11 S11       -13.5627   -4.0241   55.9387 S.o2    1  ZINC000460972051    2.7000
     12 O12       -14.7936   -3.7903   56.6091 O.2     1  ZINC000460972051   -0.9500
     13 O13       -13.2289   -5.2681   55.3382 O.2     1  ZINC000460972051   -0.9600
     14 C14       -12.2875   -3.6760   57.1037 C.ar    1  ZINC000460972051   -0.6900
     15 C15       -11.3881   -4.6632   57.4594 C.ar    1  ZINC000460972051   -0.0100
     16 C16       -10.3875   -4.3900   58.3736 C.ar    1  ZINC000460972051   -0.1500
     17 C17       -10.2864   -3.1296   58.9314 C.ar    1  ZINC000460972051   -0.0200
     18 C18        -9.1961   -2.8319   59.9282 C.3     1  ZINC000460972051   -0.1300
     19 C19       -11.1853   -2.1415   58.5745 C.ar    1  ZINC000460972051   -0.1500
     20 C20       -12.1833   -2.4136   57.6578 C.ar    1  ZINC000460972051    0.0300
     21 C21       -13.1630   -1.3367   57.2687 C.3     1  ZINC000460972051   -0.1700
     22 C22       -10.7290   -1.0225   53.0216 C.ar    1  ZINC000460972051   -0.1000
     23 C23       -10.0098   -1.7822   52.1180 C.ar    1  ZINC000460972051   -0.1000
     24 C24        -8.6934   -1.4641   51.8410 C.ar    1  ZINC000460972051   -0.1200
     25 C25        -8.0963   -0.3861   52.4673 C.ar    1  ZINC000460972051   -0.1200
     26 C26        -8.8158    0.3741   53.3703 C.ar    1  ZINC000460972051   -0.1200
     27 C27       -10.1336    0.0586   53.6440 C.ar    1  ZINC000460972051   -0.1000
     28 C28       -14.6016    1.0948   49.8998 C.3     1  ZINC000460972051    0.1500
     29 C29       -13.4275    1.8988   49.3375 C.3     1  ZINC000460972051   -0.1600
     30 C30       -15.6101    0.8162   48.7835 C.3     1  ZINC000460972051   -0.1600
     31 H31       -15.8476   -3.0187   49.8384 H       1  ZINC000460972051    0.0700
     32 H32       -15.4496   -2.2902   51.4129 H       1  ZINC000460972051    0.0600
     33 H33       -16.4867   -1.4126   50.2629 H       1  ZINC000460972051    0.0700
     34 H34       -13.5437   -2.1017   49.8378 H       1  ZINC000460972051    0.0700
     35 H35       -14.5809   -1.2240   48.6878 H       1  ZINC000460972051    0.0900
     36 H36       -13.1316   -2.1860   51.6190 H       1  ZINC000460972051    0.4000
     37 H37       -12.2305   -3.5166   53.1634 H       1  ZINC000460972051    0.0900
     38 H38       -11.3659   -2.9123   54.5973 H       1  ZINC000460972051    0.0900
     39 H39       -14.2093   -2.2966   54.5649 H       1  ZINC000460972051    0.4200
     40 H40       -11.4672   -5.6483   57.0236 H       1  ZINC000460972051    0.1400
     41 H41        -9.6852   -5.1617   58.6522 H       1  ZINC000460972051    0.1300
     42 H42        -8.3119   -2.4711   59.4026 H       1  ZINC000460972051    0.0800
     43 H43        -9.5404   -2.0689   60.6263 H       1  ZINC000460972051    0.0700
     44 H44        -8.9473   -3.7404   60.4766 H       1  ZINC000460972051    0.0700
     45 H45       -11.1061   -1.1565   59.0100 H       1  ZINC000460972051    0.1300
     46 H46       -12.8301   -0.8581   56.3478 H       1  ZINC000460972051    0.0900
     47 H47       -14.1468   -1.7795   57.1130 H       1  ZINC000460972051    0.1000
     48 H48       -13.2208   -0.5935   58.0641 H       1  ZINC000460972051    0.0900
     49 H49       -10.4763   -2.6244   51.6287 H       1  ZINC000460972051    0.1200
     50 H50        -8.1313   -2.0581   51.1356 H       1  ZINC000460972051    0.1200
     51 H51        -7.0675   -0.1380   52.2515 H       1  ZINC000460972051    0.1200
     52 H52        -8.3493    1.2162   53.8599 H       1  ZINC000460972051    0.1200
     53 H53       -10.6956    0.6526   54.3495 H       1  ZINC000460972051    0.1200
     54 H54       -15.0856    1.6649   50.6928 H       1  ZINC000460972051    0.1000
     55 H55       -12.7090    2.0973   50.1327 H       1  ZINC000460972051    0.0600
     56 H56       -12.9435    1.3287   48.5445 H       1  ZINC000460972051    0.0600
     57 H57       -13.7937    2.8431   48.9345 H       1  ZINC000460972051    0.0700
     58 H58       -16.4465    0.2435   49.1841 H       1  ZINC000460972051    0.0600
     59 H59       -15.9762    1.7605   48.3806 H       1  ZINC000460972051    0.0700
     60 H60       -15.1260    0.2462   47.9906 H       1  ZINC000460972051    0.0600
@<TRIPOS>BOND
     1     1     2    1
     2     1    31    1
     3     1    32    1
     4     1    33    1
     5     2     3    1
     6     2    34    1
     7     2    35    1
     8     3     4   am
     9     3    28    1
    10     4     5    2
    11     4     6   am
    12     6     7    1
    13     6    36    1
    14     7     8    1
    15     7     9    1
    16     7    22    1
    17     9    10    1
    18     9    37    1
    19     9    38    1
    20    10    11   am
    21    10    39    1
    22    11    12    2
    23    11    13    2
    24    11    14    1
    25    14    20   ar
    26    14    15   ar
    27    15    16   ar
    28    15    40    1
    29    16    17   ar
    30    16    41    1
    31    17    18    1
    32    17    19   ar
    33    18    42    1
    34    18    43    1
    35    18    44    1
    36    19    20   ar
    37    19    45    1
    38    20    21    1
    39    21    46    1
    40    21    47    1
    41    21    48    1
    42    22    27   ar
    43    22    23   ar
    44    23    24   ar
    45    23    49    1
    46    24    25   ar
    47    24    50    1
    48    25    26   ar
    49    25    51    1
    50    26    27   ar
    51    26    52    1
    52    27    53    1
    53    28    29    1
    54    28    30    1
    55    28    54    1
    56    29    55    1
    57    29    56    1
    58    29    57    1
    59    30    58    1
    60    30    59    1
    61    30    60    1
@<TRIPOS>SUBSTRUCTURE
     1 ZINC000460972051        1 TEMP              0 ****  ****    0 ROOT


##########                                Name:    ZINC000002634904
##########                DOCK_Rotatable_Bonds:                   7
##########                         Heavy_Atoms:                  31
##########                    Molecular_Weight:             423.498
##########                DOCK_Rotatable_Bonds:                   7
##########                       Formal_Charge:        -7.45058e-08
##########                     HBond_Acceptors:                   7
##########                        HBond_Donors:                   1
##########                         Heavy_Atoms:                  31
##########                          Grid_Score:          -35.704082
##########                     Grid_vdw_energy:          -35.435883
##########                      Grid_es_energy:           -0.268201
##########           Internal_energy_repulsive:            6.647648

@<TRIPOS>MOLECULE
ZINC000002634904
 48 51 1 0 0
SMALL
USER_CHARGES


@<TRIPOS>ATOM
      1 N1         -5.5385    3.7388   52.9134 N.1     1  ZINC000002634904   -0.4100
      2 C2         -6.2927    2.8957   52.8096 C.1     1  ZINC000002634904    0.2500
      3 C3         -7.2435    1.8329   52.6787 C.ar    1  ZINC000002634904   -0.0400
      4 C4         -8.4205    1.8491   53.4324 C.ar    1  ZINC000002634904   -0.0500
      5 C5         -9.3325    0.8254   53.3040 C.ar    1  ZINC000002634904   -0.1400
      6 C6         -9.0835   -0.2239   52.4254 C.ar    1  ZINC000002634904    0.1700
      7 N7        -10.0100   -1.2595   52.2978 N.am    1  ZINC000002634904   -0.6700
      8 C8        -11.2860   -0.9846   51.9621 C.2     1  ZINC000002634904    0.5400
      9 O9        -11.6291    0.1629   51.7711 O.2     1  ZINC000002634904   -0.5000
     10 C10       -12.2866   -2.1030   51.8243 C.3     1  ZINC000002634904   -0.1700
     11 S11       -11.6880   -3.5612   52.7139 S.3     1  ZINC000002634904    0.1300
     12 C12       -12.2156   -3.1615   54.3469 C.ar    1  ZINC000002634904    0.2100
     13 N13       -13.4863   -2.8410   54.5631 N.ar    1  ZINC000002634904   -0.2900
     14 N14       -13.9163   -2.5421   55.7387 N.ar    1  ZINC000002634904   -0.1600
     15 C15       -13.0898   -2.5464   56.7792 C.ar    1  ZINC000002634904    0.0600
     16 C16       -13.5831   -2.2029   58.1335 C.ar    1  ZINC000002634904   -0.0500
     17 C17       -13.8531   -3.2123   59.0570 C.ar    1  ZINC000002634904   -0.0800
     18 C18       -14.3123   -2.8862   60.3167 C.ar    1  ZINC000002634904   -0.1200
     19 C19       -14.5053   -1.5611   60.6640 C.ar    1  ZINC000002634904   -0.1000
     20 C20       -14.2393   -0.5555   59.7522 C.ar    1  ZINC000002634904   -0.1200
     21 C21       -13.7737   -0.8688   58.4915 C.ar    1  ZINC000002634904   -0.0800
     22 C22       -11.7367   -2.8832   56.5743 C.ar    1  ZINC000002634904    0.2300
     23 C23       -10.7806   -2.9005   57.7059 C.ar    1  ZINC000002634904   -0.0700
     24 C24       -10.1698   -1.7189   58.1245 C.ar    1  ZINC000002634904   -0.0700
     25 C25        -9.2806   -1.7412   59.1794 C.ar    1  ZINC000002634904   -0.1200
     26 C26        -8.9947   -2.9328   59.8215 C.ar    1  ZINC000002634904   -0.0900
     27 C27        -9.5971   -4.1083   59.4105 C.ar    1  ZINC000002634904   -0.1200
     28 C28       -10.4924   -4.0976   58.3606 C.ar    1  ZINC000002634904   -0.0700
     29 N29       -11.3382   -3.1906   55.3421 N.ar    1  ZINC000002634904   -0.4400
     30 C30        -7.9135   -0.2431   51.6733 C.ar    1  ZINC000002634904   -0.1200
     31 C31        -6.9995    0.7798   51.7925 C.ar    1  ZINC000002634904   -0.0500
     32 H32        -8.6142    2.6633   54.1151 H       1  ZINC000002634904    0.1400
     33 H33       -10.2419    0.8371   53.8863 H       1  ZINC000002634904    0.1400
     34 H34        -9.7357   -2.1773   52.4505 H       1  ZINC000002634904    0.4200
     35 H35       -13.2426   -1.7889   52.2434 H       1  ZINC000002634904    0.1300
     36 H36       -12.4150   -2.3479   50.7701 H       1  ZINC000002634904    0.1300
     37 H37       -13.7033   -4.2471   58.7867 H       1  ZINC000002634904    0.1300
     38 H38       -14.5216   -3.6670   61.0328 H       1  ZINC000002634904    0.1300
     39 H39       -14.8656   -1.3108   61.6509 H       1  ZINC000002634904    0.1300
     40 H40       -14.3920    0.4773   60.0290 H       1  ZINC000002634904    0.1300
     41 H41       -13.5661   -0.0827   57.7805 H       1  ZINC000002634904    0.1200
     42 H42       -10.3920   -0.7881   57.6237 H       1  ZINC000002634904    0.1300
     43 H43        -8.8067   -0.8267   59.5042 H       1  ZINC000002634904    0.1300
     44 H44        -8.2980   -2.9453   60.6467 H       1  ZINC000002634904    0.1300
     45 H45        -9.3697   -5.0356   59.9154 H       1  ZINC000002634904    0.1300
     46 H46       -10.9621   -5.0160   58.0407 H       1  ZINC000002634904    0.1300
     47 H47        -7.7238   -1.0592   50.9919 H       1  ZINC000002634904    0.1500
     48 H48        -6.0915    0.7645   51.2081 H       1  ZINC000002634904    0.1400
@<TRIPOS>BOND
     1     1     2    3
     2     2     3    1
     3     3    31   ar
     4     3     4   ar
     5     4     5   ar
     6     4    32    1
     7     5     6   ar
     8     5    33    1
     9     6     7    1
    10     6    30   ar
    11     7     8   am
    12     7    34    1
    13     8     9    2
    14     8    10    1
    15    10    11    1
    16    10    35    1
    17    10    36    1
    18    11    12    1
    19    12    29   ar
    20    12    13   ar
    21    13    14   ar
    22    14    15   ar
    23    15    16    1
    24    15    22   ar
    25    16    21   ar
    26    16    17   ar
    27    17    18   ar
    28    17    37    1
    29    18    19   ar
    30    18    38    1
    31    19    20   ar
    32    19    39    1
    33    20    21   ar
    34    20    40    1
    35    21    41    1
    36    22    23    1
    37    22    29   ar
    38    23    28   ar
    39    23    24   ar
    40    24    25   ar
    41    24    42    1
    42    25    26   ar
    43    25    43    1
    44    26    27   ar
    45    26    44    1
    46    27    28   ar
    47    27    45    1
    48    28    46    1
    49    30    31   ar
    50    30    47    1
    51    31    48    1
@<TRIPOS>SUBSTRUCTURE
     1 ZINC000002634904        1 TEMP              0 ****  ****    0 ROOT


##########                                Name:    ZINC000550217006
##########                DOCK_Rotatable_Bonds:                   7
##########                         Heavy_Atoms:                  27
##########                    Molecular_Weight:             367.404
##########                DOCK_Rotatable_Bonds:                   7
##########                       Formal_Charge:          0.00999951
##########                     HBond_Acceptors:                   7
##########                        HBond_Donors:                   3
##########                         Heavy_Atoms:                  27
##########                          Grid_Score:          -35.689568
##########                     Grid_vdw_energy:          -34.638115
##########                      Grid_es_energy:           -1.051452
##########           Internal_energy_repulsive:           16.754936

@<TRIPOS>MOLECULE
ZINC000550217006
 48 50 1 0 0
SMALL
USER_CHARGES


@<TRIPOS>ATOM
      1 C1        -10.2664    3.6865   49.5517 C.3     1  ZINC000550217006   -0.1500
      2 C2         -9.0041    4.3538   50.1017 C.3     1  ZINC000550217006    0.0500
      3 O3         -8.0044    3.3604   50.3374 O.3     1  ZINC000550217006   -0.3100
      4 C4         -8.2527    2.4564   51.3214 C.ar    1  ZINC000550217006    0.1400
      5 C5         -9.2249    2.7178   52.2757 C.ar    1  ZINC000550217006   -0.2100
      6 C6         -9.4759    1.7970   53.2747 C.ar    1  ZINC000550217006   -0.0800
      7 C7         -8.7587    0.6162   53.3241 C.ar    1  ZINC000550217006   -0.1600
      8 C8         -7.7886    0.3534   52.3741 C.ar    1  ZINC000550217006   -0.0700
      9 C9         -7.5382    1.2680   51.3698 C.ar    1  ZINC000550217006   -0.1200
     10 C10        -6.4814    0.9808   50.3346 C.3     1  ZINC000550217006   -0.0800
     11 C11        -5.2037    1.7464   50.6843 C.3     1  ZINC000550217006    0.1300
     12 N12        -4.1534    1.4100   49.7199 N.am    1  ZINC000550217006   -0.7200
     13 C13        -2.8573    1.5751   50.0502 C.2     1  ZINC000550217006    0.5600
     14 O14        -2.5597    2.0045   51.1475 O.2     1  ZINC000550217006   -0.5300
     15 C15        -1.7957    1.2335   49.0762 C.ar    1  ZINC000550217006   -0.0800
     16 C16        -0.4592    1.5133   49.3704 C.ar    1  ZINC000550217006   -0.1000
     17 C17         0.5223    1.1960   48.4637 C.ar    1  ZINC000550217006   -0.0500
     18 C18         0.1991    0.5899   47.2383 C.ar    1  ZINC000550217006   -0.1300
     19 C19        -1.1336    0.3060   46.9424 C.ar    1  ZINC000550217006    0.1800
     20 C20        -2.1259    0.6287   47.8698 C.ar    1  ZINC000550217006   -0.0900
     21 N21        -1.5413   -0.2991   45.7658 N.am    1  ZINC000550217006   -0.6600
     22 C22        -1.0627   -0.0371   44.5534 C.2     1  ZINC000550217006    0.5100
     23 O23        -1.5408   -0.6080   43.5961 O.2     1  ZINC000550217006   -0.5100
     24 C24         0.0538    0.9467   44.3339 C.3     1  ZINC000550217006    0.0900
     25 N25         1.2584    0.4504   44.9994 N.am    1  ZINC000550217006   -0.7100
     26 C26         1.3064    0.2864   46.3202 C.2     1  ZINC000550217006    0.5600
     27 O27         2.3372   -0.1440   46.7998 O.2     1  ZINC000550217006   -0.5200
     28 H28       -10.6385    2.9610   50.2752 H       1  ZINC000550217006    0.0700
     29 H29       -11.0290    4.4442   49.3719 H       1  ZINC000550217006    0.0800
     30 H30       -10.0309    3.1789   48.6163 H       1  ZINC000550217006    0.0700
     31 H31        -8.6320    5.0792   49.3783 H       1  ZINC000550217006    0.0600
     32 H32        -9.2397    4.8614   51.0371 H       1  ZINC000550217006    0.0600
     33 H33        -9.7849    3.6405   52.2380 H       1  ZINC000550217006    0.1300
     34 H34       -10.2327    2.0001   54.0180 H       1  ZINC000550217006    0.1300
     35 H35        -8.9560   -0.1022   54.1060 H       1  ZINC000550217006    0.1300
     36 H36        -7.2294   -0.5697   52.4150 H       1  ZINC000550217006    0.1300
     37 H37        -6.2710   -0.0886   50.3172 H       1  ZINC000550217006    0.0800
     38 H38        -6.8376    1.2970   49.3542 H       1  ZINC000550217006    0.0800
     39 H39        -5.4007    2.8178   50.6480 H       1  ZINC000550217006    0.0700
     40 H40        -4.8778    1.4707   51.6872 H       1  ZINC000550217006    0.0700
     41 H41        -4.3909    1.0684   48.8436 H       1  ZINC000550217006    0.4000
     42 H42        -0.1980    1.9787   50.3095 H       1  ZINC000550217006    0.1400
     43 H43         1.5541    1.4151   48.6953 H       1  ZINC000550217006    0.1500
     44 H44        -3.1599    0.4137   47.6441 H       1  ZINC000550217006    0.1500
     45 H45        -2.2359   -0.9730   45.8318 H       1  ZINC000550217006    0.4200
     46 H46         0.2435    1.0514   43.2657 H       1  ZINC000550217006    0.1300
     47 H47        -0.2236    1.9134   44.7540 H       1  ZINC000550217006    0.1000
     48 H48         2.0398    0.2355   44.4665 H       1  ZINC000550217006    0.4200
@<TRIPOS>BOND
     1     1     2    1
     2     1    28    1
     3     1    29    1
     4     1    30    1
     5     2     3    1
     6     2    31    1
     7     2    32    1
     8     3     4    1
     9     4     9   ar
    10     4     5   ar
    11     5     6   ar
    12     5    33    1
    13     6     7   ar
    14     6    34    1
    15     7     8   ar
    16     7    35    1
    17     8     9   ar
    18     8    36    1
    19     9    10    1
    20    10    11    1
    21    10    37    1
    22    10    38    1
    23    11    12    1
    24    11    39    1
    25    11    40    1
    26    12    13   am
    27    12    41    1
    28    13    14    2
    29    13    15    1
    30    15    20   ar
    31    15    16   ar
    32    16    17   ar
    33    16    42    1
    34    17    18   ar
    35    17    43    1
    36    18    26    1
    37    18    19   ar
    38    19    20   ar
    39    19    21    1
    40    20    44    1
    41    21    22   am
    42    21    45    1
    43    22    23    2
    44    22    24    1
    45    24    25    1
    46    24    46    1
    47    24    47    1
    48    25    26   am
    49    25    48    1
    50    26    27    2
@<TRIPOS>SUBSTRUCTURE
     1 ZINC000550217006        1 TEMP              0 ****  ****    0 ROOT


##########                                Name:    ZINC000062882109
##########                DOCK_Rotatable_Bonds:                   8
##########                         Heavy_Atoms:                  31
##########                    Molecular_Weight:             424.497
##########                DOCK_Rotatable_Bonds:                   8
##########                       Formal_Charge:           0.0299993
##########                     HBond_Acceptors:                   7
##########                        HBond_Donors:                   1
##########                         Heavy_Atoms:                  31
##########                          Grid_Score:          -35.684887
##########                     Grid_vdw_energy:          -34.627914
##########                      Grid_es_energy:           -1.056974
##########           Internal_energy_repulsive:          187.938004

@<TRIPOS>MOLECULE
ZINC000062882109
 59 61 1 0 0
SMALL
USER_CHARGES


@<TRIPOS>ATOM
      1 C1        -13.9262   -5.2080   56.8642 C.3     1  ZINC000062882109   -0.2000
      2 C2        -12.9253   -4.5335   57.7667 C.2     1  ZINC000062882109    0.3900
      3 O3        -11.8176   -5.0071   57.9046 O.2     1  ZINC000062882109   -0.4500
      4 C4        -13.2924   -3.2999   58.4806 C.ar    1  ZINC000062882109   -0.1300
      5 C5        -14.5694   -2.7517   58.3245 C.ar    1  ZINC000062882109   -0.1100
      6 C6        -14.9088   -1.5954   58.9957 C.ar    1  ZINC000062882109   -0.0900
      7 C7        -13.9905   -0.9754   59.8231 C.ar    1  ZINC000062882109   -0.1800
      8 C8        -12.7194   -1.5113   59.9849 C.ar    1  ZINC000062882109    0.1200
      9 O9        -11.8219   -0.8964   60.7998 O.3     1  ZINC000062882109   -0.2800
     10 C10       -10.4659   -1.3408   60.7236 C.3     1  ZINC000062882109    0.0700
     11 H11       -10.4285   -2.4202   60.8697 H       1  ZINC000062882109    0.1000
     12 C12        -9.6411   -0.6499   61.8114 C.3     1  ZINC000062882109   -0.1800
     13 C13        -9.9000   -0.9970   59.3698 C.2     1  ZINC000062882109    0.5200
     14 O14        -9.2044   -1.7980   58.7820 O.2     1  ZINC000062882109   -0.4900
     15 N15       -10.1670    0.2006   58.8122 N.am    1  ZINC000062882109   -0.6600
     16 C16        -9.6410    0.5203   57.5536 C.ar    1  ZINC000062882109    0.1400
     17 C17        -8.4677    1.2561   57.4572 C.ar    1  ZINC000062882109   -0.1000
     18 C18        -7.9466    1.5748   56.2177 C.ar    1  ZINC000062882109   -0.1100
     19 C19        -8.5936    1.1612   55.0629 C.ar    1  ZINC000062882109    0.0800
     20 O20        -8.0753    1.4886   53.8490 O.3     1  ZINC000062882109   -0.3100
     21 C21        -8.4820    0.7119   52.7199 C.3     1  ZINC000062882109    0.0500
     22 C22       -10.0139    0.6098   52.7154 C.3     1  ZINC000062882109    0.0400
     23 N23       -10.4228   -0.0046   53.9900 N.am    1  ZINC000062882109   -0.5500
     24 C24       -11.3905   -0.9417   54.0336 C.2     1  ZINC000062882109    0.5300
     25 O25       -11.7109   -1.4338   55.0949 O.2     1  ZINC000062882109   -0.5100
     26 C26       -12.0745   -1.3781   52.7636 C.3     1  ZINC000062882109   -0.0800
     27 C27       -13.2338   -2.3164   53.1052 C.3     1  ZINC000062882109   -0.1300
     28 C28       -12.6126   -0.1502   52.0263 C.3     1  ZINC000062882109   -0.1600
     29 C29       -11.0717   -2.1107   51.8700 C.3     1  ZINC000062882109   -0.1500
     30 C30        -9.7687    0.4199   55.1593 C.ar    1  ZINC000062882109    0.1000
     31 C31       -10.2895    0.0967   56.4011 C.ar    1  ZINC000062882109   -0.1400
     32 C32       -12.3679   -2.6743   59.3223 C.ar    1  ZINC000062882109   -0.0900
     33 H33       -13.4774   -6.0996   56.4263 H       1  ZINC000062882109    0.0900
     34 H34       -14.8052   -5.4907   57.4435 H       1  ZINC000062882109    0.1000
     35 H35       -14.2197   -4.5216   56.0700 H       1  ZINC000062882109    0.1000
     36 H36       -15.2889   -3.2330   57.6788 H       1  ZINC000062882109    0.1400
     37 H37       -15.8951   -1.1725   58.8742 H       1  ZINC000062882109    0.1300
     38 H38       -14.2629   -0.0703   60.3457 H       1  ZINC000062882109    0.1300
     39 H39       -10.0505   -0.8986   62.7906 H       1  ZINC000062882109    0.0800
     40 H40        -8.6067   -0.9889   61.7534 H       1  ZINC000062882109    0.0800
     41 H41        -9.6785    0.4295   61.6654 H       1  ZINC000062882109    0.0800
     42 H42       -10.7234    0.8413   59.2822 H       1  ZINC000062882109    0.4100
     43 H43        -7.9607    1.5806   58.3538 H       1  ZINC000062882109    0.1400
     44 H44        -7.0338    2.1477   56.1481 H       1  ZINC000062882109    0.1400
     45 H45        -8.1454    1.1960   51.8032 H       1  ZINC000062882109    0.1300
     46 H46        -8.0495   -0.2862   52.7883 H       1  ZINC000062882109    0.0700
     47 H47       -10.4507    1.6046   52.6272 H       1  ZINC000062882109    0.0900
     48 H48       -10.3405   -0.0134   51.8827 H       1  ZINC000062882109    0.1300
     49 H49       -13.9482   -1.7945   53.7418 H       1  ZINC000062882109    0.0600
     50 H50       -13.7285   -2.6320   52.1866 H       1  ZINC000062882109    0.0700
     51 H51       -12.8504   -3.1912   53.6304 H       1  ZINC000062882109    0.0700
     52 H52       -11.7869    0.5183   51.7829 H       1  ZINC000062882109    0.0700
     53 H53       -13.1074   -0.4658   51.1078 H       1  ZINC000062882109    0.0800
     54 H54       -13.3271    0.3717   52.6629 H       1  ZINC000062882109    0.0600
     55 H55       -10.8388   -3.0822   52.3057 H       1  ZINC000062882109    0.0700
     56 H56       -11.5031   -2.2510   50.8789 H       1  ZINC000062882109    0.0800
     57 H57       -10.1588   -1.5206   51.7887 H       1  ZINC000062882109    0.0700
     58 H58       -11.2001   -0.4794   56.4729 H       1  ZINC000062882109    0.1800
     59 H59       -11.3799   -3.0920   59.4477 H       1  ZINC000062882109    0.1400
@<TRIPOS>BOND
     1     1     2    1
     2     1    33    1
     3     1    34    1
     4     1    35    1
     5     2     3    2
     6     2     4    1
     7     4    32   ar
     8     4     5   ar
     9     5     6   ar
    10     5    36    1
    11     6     7   ar
    12     6    37    1
    13     7     8   ar
    14     7    38    1
    15     8     9    1
    16     8    32   ar
    17     9    10    1
    18    10    11    1
    19    10    12    1
    20    10    13    1
    21    12    39    1
    22    12    40    1
    23    12    41    1
    24    13    14    2
    25    13    15   am
    26    15    16    1
    27    15    42    1
    28    16    31   ar
    29    16    17   ar
    30    17    18   ar
    31    17    43    1
    32    18    19   ar
    33    18    44    1
    34    19    30   ar
    35    19    20    1
    36    20    21    1
    37    21    22    1
    38    21    45    1
    39    21    46    1
    40    22    23    1
    41    22    47    1
    42    22    48    1
    43    23    24   am
    44    23    30    1
    45    24    25    2
    46    24    26    1
    47    26    27    1
    48    26    28    1
    49    26    29    1
    50    27    49    1
    51    27    50    1
    52    27    51    1
    53    28    52    1
    54    28    53    1
    55    28    54    1
    56    29    55    1
    57    29    56    1
    58    29    57    1
    59    30    31   ar
    60    31    58    1
    61    32    59    1
@<TRIPOS>SUBSTRUCTURE
     1 ZINC000062882109        1 TEMP              0 ****  ****    0 ROOT


##########                                Name:    ZINC000355549087
##########                DOCK_Rotatable_Bonds:                   9
##########                         Heavy_Atoms:                  23
##########                    Molecular_Weight:             336.415
##########                DOCK_Rotatable_Bonds:                   9
##########                       Formal_Charge:        -9.53674e-07
##########                     HBond_Acceptors:                   8
##########                        HBond_Donors:                   4
##########                         Heavy_Atoms:                  23
##########                          Grid_Score:          -35.652691
##########                     Grid_vdw_energy:          -33.746471
##########                      Grid_es_energy:           -1.906218
##########           Internal_energy_repulsive:           15.890860

@<TRIPOS>MOLECULE
ZINC000355549087
 43 44 1 0 0
SMALL
USER_CHARGES


@<TRIPOS>ATOM
      1 C1        -10.7072   -1.7031   52.3702 C.3     1  <0>        -0.1500
      2 C2        -11.5206   -1.7403   53.6656 C.3     1  <0>        -0.1200
      3 C3        -11.5863   -3.1779   54.1853 C.3     1  <0>        -0.1000
      4 H4        -10.5752   -3.5563   54.3359 H       1  <0>         0.0800
      5 C5        -12.3131   -4.0564   53.1652 C.3     1  <0>        -0.1500
      6 C6        -12.3443   -3.2055   55.5142 C.3     1  <0>         0.0900
      7 H7        -13.1378   -2.4585   55.4954 H       1  <0>         0.1000
      8 O8        -12.9141   -4.5012   55.7106 O.3     1  <0>        -0.3500
      9 C9        -14.2611   -4.4775   56.1870 C.3     1  <0>         0.0200
     10 C10       -11.3926   -2.8990   56.6417 C.2     1  <0>         0.5100
     11 O11       -10.5067   -2.0860   56.4833 O.2     1  <0>        -0.4800
     12 N12       -11.5258   -3.5283   57.8261 N.am    1  <0>        -0.6200
     13 C13       -10.6492   -3.2445   58.8662 C.2     1  <0>         0.2400
     14 N14       -10.6575   -2.1530   59.5626 N.2     1  <0>        -0.5000
     15 C15        -9.7476   -2.0459   60.5218 C.2     1  <0>         0.1700
     16 C16        -9.6371   -0.8529   61.3998 C.2     1  <0>        -0.1100
     17 C17       -10.1058    0.3994   61.1232 C.2     1  <0>         0.0600
     18 N18        -9.8120    1.2095   62.1695 N.pl3   1  <0>        -0.5400
     19 C19        -9.1496    0.4757   63.1272 C.2     1  <0>        -0.0600
     20 C20        -8.6579    0.9810   64.4138 C.2     1  <0>         0.5900
     21 N21        -7.3537    0.8597   64.7316 N.am    1  <0>        -0.8600
     22 O22        -9.4277    1.5097   65.1942 O.2     1  <0>        -0.5300
     23 C23        -9.0354   -0.8080   62.6714 C.2     1  <0>        -0.0600
     24 C24        -8.9336   -3.1114   60.6308 C.2     1  <0>        -0.3200
     25 S25        -9.4123   -4.2899   59.4122 S.3     1  <0>         0.2500
     26 H26       -10.6604   -0.6790   51.9999 H       1  <0>         0.0600
     27 H27        -9.6979   -2.0657   52.5644 H       1  <0>         0.0600
     28 H28       -11.1841   -2.3381   51.6234 H       1  <0>         0.0600
     29 H29       -11.0439   -1.1054   54.4123 H       1  <0>         0.0600
     30 H30       -12.5300   -1.3777   53.4713 H       1  <0>         0.0700
     31 H31       -13.3242   -3.6779   53.0147 H       1  <0>         0.0700
     32 H32       -11.7731   -4.0367   52.2185 H       1  <0>         0.0600
     33 H33       -12.3598   -5.0805   53.5355 H       1  <0>         0.0500
     34 H34       -14.5873   -5.4946   56.4049 H       1  <0>         0.0900
     35 H35       -14.3149   -3.8764   57.0947 H       1  <0>         0.0500
     36 H36       -14.9085   -4.0436   55.4250 H       1  <0>         0.0500
     37 H37       -12.2337   -4.1795   57.9523 H       1  <0>         0.4200
     38 H38       -10.6235    0.6946   60.2225 H       1  <0>         0.1800
     39 H39       -10.0323    2.1520   62.2327 H       1  <0>         0.4200
     40 H40        -7.0285    1.1949   65.5818 H       1  <0>         0.4000
     41 H41        -6.7404    0.4372   64.1101 H       1  <0>         0.4100
     42 H42        -8.5656   -1.6321   63.1877 H       1  <0>         0.1500
     43 H43        -8.1298   -3.2257   61.3429 H       1  <0>         0.1800
@<TRIPOS>BOND
     1     1     2    1
     2     1    26    1
     3     1    27    1
     4     1    28    1
     5     2     3    1
     6     2    29    1
     7     2    30    1
     8     3     4    1
     9     3     5    1
    10     3     6    1
    11     5    31    1
    12     5    32    1
    13     5    33    1
    14     6     7    1
    15     6     8    1
    16     6    10    1
    17     8     9    1
    18     9    34    1
    19     9    35    1
    20     9    36    1
    21    10    11    2
    22    10    12   am
    23    12    13    1
    24    12    37    1
    25    13    25    1
    26    13    14    2
    27    14    15    1
    28    15    16    1
    29    15    24    2
    30    16    23    1
    31    16    17    2
    32    17    18    1
    33    17    38    1
    34    18    19    1
    35    18    39    1
    36    19    20    1
    37    19    23    2
    38    20    21   am
    39    20    22    2
    40    21    40    1
    41    21    41    1
    42    23    42    1
    43    24    25    1
    44    24    43    1
@<TRIPOS>SUBSTRUCTURE
     1 <0>         1 TEMP              0 ****  ****    0 ROOT


##########                                Name:    ZINC001326371752
##########                DOCK_Rotatable_Bonds:                   5
##########                         Heavy_Atoms:                  25
##########                    Molecular_Weight:             360.397
##########                DOCK_Rotatable_Bonds:                   5
##########                       Formal_Charge:           0.0199999
##########                     HBond_Acceptors:                  10
##########                        HBond_Donors:                   0
##########                         Heavy_Atoms:                  25
##########                          Grid_Score:          -35.628555
##########                     Grid_vdw_energy:          -34.112438
##########                      Grid_es_energy:           -1.516118
##########           Internal_energy_repulsive:           10.221625

@<TRIPOS>MOLECULE
ZINC001326371752
 41 44 1 0 0
SMALL
USER_CHARGES


@<TRIPOS>ATOM
      1 C1        -14.4481   -0.3519   47.5397 C.3     1  ZINC001326371752    0.0300
      2 O2        -14.7607   -0.3833   48.9337 O.3     1  ZINC001326371752   -0.3800
      3 C3        -13.8946   -1.2181   49.7050 C.3     1  ZINC001326371752    0.0500
      4 C4        -14.3227   -1.1787   51.1734 C.3     1  ZINC001326371752    0.1200
      5 N5        -13.4318   -2.0308   51.9648 N.pl3   1  ZINC001326371752   -0.2800
      6 N6        -12.1979   -2.2964   51.6939 N.2     1  ZINC001326371752   -0.0800
      7 N7        -11.7018   -3.0794   52.5915 N.2     1  ZINC001326371752   -0.2500
      8 C8        -12.6432   -3.3427   53.4906 C.2     1  ZINC001326371752   -0.0400
      9 C9        -13.7546   -2.6688   53.1040 C.2     1  ZINC001326371752    0.0000
     10 C10       -15.0635   -2.6776   53.8467 C.3     1  ZINC001326371752   -0.0600
     11 C11       -15.0788   -3.8756   54.8054 C.3     1  ZINC001326371752    0.1200
     12 N12       -13.7904   -3.9482   55.5102 N.am    1  ZINC001326371752   -0.6100
     13 C13       -13.7242   -3.7794   56.8457 C.2     1  ZINC001326371752    0.6100
     14 O14       -14.7386   -3.5641   57.4828 O.2     1  ZINC001326371752   -0.5100
     15 C15       -12.4292   -3.8553   57.5317 C.2     1  ZINC001326371752   -0.3400
     16 C16       -11.6717   -5.0318   57.4962 C.2     1  ZINC001326371752    0.2400
     17 N17       -10.5118   -5.0642   58.1243 N.2     1  ZINC001326371752   -0.5100
     18 C18       -10.0441   -4.0150   58.7877 C.2     1  ZINC001326371752    0.2900
     19 S19        -8.5815   -3.8108   59.6742 S.3     1  ZINC001326371752    0.2500
     20 C20        -8.9188   -2.1347   60.1348 C.2     1  ZINC001326371752   -0.2100
     21 C21       -10.0926   -1.8513   59.5958 C.2     1  ZINC001326371752    0.0500
     22 N22       -10.7168   -2.8373   58.8705 N.am    1  ZINC001326371752   -0.4600
     23 C23       -11.9216   -2.7411   58.2350 C.2     1  ZINC001326371752    0.5500
     24 O24       -12.5568   -1.7018   58.2784 O.2     1  ZINC001326371752   -0.5000
     25 C25       -12.5707   -4.2066   54.7240 C.3     1  ZINC001326371752    0.2000
     26 H26       -15.1505    0.3032   47.0245 H       1  ZINC001326371752    0.0900
     27 H27       -13.4339    0.0237   47.4032 H       1  ZINC001326371752    0.0500
     28 H28       -14.5211   -1.3585   47.1282 H       1  ZINC001326371752    0.0500
     29 H29       -13.9541   -2.2423   49.3366 H       1  ZINC001326371752    0.0600
     30 H30       -12.8693   -0.8589   49.6157 H       1  ZINC001326371752    0.0600
     31 H31       -14.2665   -0.1540   51.5408 H       1  ZINC001326371752    0.1200
     32 H32       -15.3466   -1.5413   51.2632 H       1  ZINC001326371752    0.1200
     33 H33       -15.1674   -1.7533   54.4151 H       1  ZINC001326371752    0.0900
     34 H34       -15.8858   -2.7670   53.1369 H       1  ZINC001326371752    0.1000
     35 H35       -15.8836   -3.7519   55.5300 H       1  ZINC001326371752    0.1100
     36 H36       -15.2359   -4.7934   54.2387 H       1  ZINC001326371752    0.0800
     37 H37       -12.0312   -5.8995   56.9632 H       1  ZINC001326371752    0.1900
     38 H38        -8.2977   -1.4822   60.7303 H       1  ZINC001326371752    0.2200
     39 H39       -10.5449   -0.8787   59.7214 H       1  ZINC001326371752    0.2000
     40 H40       -12.5316   -5.2565   54.4338 H       1  ZINC001326371752    0.1000
     41 H41       -11.6891   -3.9497   55.3113 H       1  ZINC001326371752    0.1000
@<TRIPOS>BOND
     1     1     2    1
     2     1    26    1
     3     1    27    1
     4     1    28    1
     5     2     3    1
     6     3     4    1
     7     3    29    1
     8     3    30    1
     9     4     5    1
    10     4    31    1
    11     4    32    1
    12     5     9    1
    13     5     6    1
    14     6     7    2
    15     7     8    1
    16     8    25    1
    17     8     9    2
    18     9    10    1
    19    10    11    1
    20    10    33    1
    21    10    34    1
    22    11    12    1
    23    11    35    1
    24    11    36    1
    25    12    13   am
    26    12    25    1
    27    13    14    2
    28    13    15    1
    29    15    23    1
    30    15    16    2
    31    16    17    1
    32    16    37    1
    33    17    18    2
    34    18    22    1
    35    18    19    1
    36    19    20    1
    37    20    21    2
    38    20    38    1
    39    21    22    1
    40    21    39    1
    41    22    23   am
    42    23    24    2
    43    25    40    1
    44    25    41    1
@<TRIPOS>SUBSTRUCTURE
     1 ZINC001326371752        1 TEMP              0 ****  ****    0 ROOT


##########                                Name:    ZINC000179496896
##########                DOCK_Rotatable_Bonds:                   8
##########                         Heavy_Atoms:                  27
##########                    Molecular_Weight:             396.504
##########                DOCK_Rotatable_Bonds:                   8
##########                       Formal_Charge:          0.00999944
##########                     HBond_Acceptors:                   8
##########                        HBond_Donors:                   1
##########                         Heavy_Atoms:                  27
##########                          Grid_Score:          -35.622917
##########                     Grid_vdw_energy:          -35.133129
##########                      Grid_es_energy:           -0.489787
##########           Internal_energy_repulsive:           29.925980

@<TRIPOS>MOLECULE
ZINC000179496896
 53 55 1 0 0
SMALL
USER_CHARGES


@<TRIPOS>ATOM
      1 C1          2.2535    1.8123   39.7428 C.3     1  ZINC000179496896   -0.1500
      2 C2          2.9352    0.4442   39.8086 C.3     1  ZINC000179496896   -0.1100
      3 C3          4.3661    0.5614   39.2796 C.3     1  ZINC000179496896   -0.1400
      4 C4          2.9660   -0.0411   41.2593 C.3     1  ZINC000179496896    0.1200
      5 N5          1.5950   -0.1873   41.7545 N.pl3   1  ZINC000179496896   -0.3300
      6 N6          0.5211   -0.7300   41.0401 N.2     1  ZINC000179496896   -0.2700
      7 C7         -0.5444   -0.7010   41.7920 C.2     1  ZINC000179496896    0.0800
      8 C8         -0.1873   -0.1304   43.0342 C.2     1  ZINC000179496896   -0.2500
      9 C9         -1.0826    0.0942   44.1838 C.2     1  ZINC000179496896    0.5900
     10 O10        -2.2690   -0.1548   44.0883 O.2     1  ZINC000179496896   -0.5300
     11 N11        -0.5860    0.5755   45.3408 N.am    1  ZINC000179496896   -0.7100
     12 C12        -1.4761    0.8003   46.4825 C.3     1  ZINC000179496896    0.1300
     13 C13        -1.4058    2.2699   46.9022 C.3     1  ZINC000179496896    0.0700
     14 H14        -0.3625    2.5717   46.9953 H       1  ZINC000179496896    0.0900
     15 C15        -2.0947    3.1356   45.8454 C.3     1  ZINC000179496896   -0.1900
     16 N16        -2.0827    2.4432   48.1943 N.3     1  ZINC000179496896   -0.5300
     17 C17        -1.1540    2.2145   49.3104 C.3     1  ZINC000179496896    0.0600
     18 C18        -1.7651    2.7844   50.5963 C.3     1  ZINC000179496896   -0.0400
     19 C19        -3.1898    2.2826   50.7018 C.2     1  ZINC000179496896   -0.1700
     20 C20        -3.8729    1.7345   49.6772 C.2     1  ZINC000179496896   -0.1100
     21 C21        -5.1647    1.3456   50.0128 C.2     1  ZINC000179496896   -0.1200
     22 C22        -5.5248    1.5710   51.2732 C.2     1  ZINC000179496896   -0.2200
     23 S23        -4.1927    2.3192   52.1426 S.3     1  ZINC000179496896    0.1000
     24 C24        -3.2605    1.5707   48.2928 C.3     1  ZINC000179496896    0.1200
     25 C25         1.1584    0.1714   42.9723 C.2     1  ZINC000179496896    0.0700
     26 C26         1.9832    0.7979   44.0669 C.3     1  ZINC000179496896    0.3400
     27 F27         1.4106    2.0178   44.4424 F       1  ZINC000179496896   -0.1500
     28 F28         2.0202   -0.0595   45.1718 F       1  ZINC000179496896   -0.2000
     29 H29         2.2317    2.1581   38.7093 H       1  ZINC000179496896    0.0600
     30 H30         1.2342    1.7288   40.1197 H       1  ZINC000179496896    0.0600
     31 H31         2.8091    2.5248   40.3526 H       1  ZINC000179496896    0.0600
     32 H32         2.3797   -0.2683   39.1988 H       1  ZINC000179496896    0.0800
     33 H33         4.9217    1.2739   39.8895 H       1  ZINC000179496896    0.0600
     34 H34         4.8518   -0.4133   39.3265 H       1  ZINC000179496896    0.0600
     35 H35         4.3443    0.9071   38.2461 H       1  ZINC000179496896    0.0700
     36 H36         3.4751   -1.0036   41.3097 H       1  ZINC000179496896    0.1000
     37 H37         3.4989    0.6845   41.8739 H       1  ZINC000179496896    0.1000
     38 H38        -1.5273   -1.0515   41.5138 H       1  ZINC000179496896    0.2000
     39 H39         0.3605    0.7730   45.4173 H       1  ZINC000179496896    0.4100
     40 H40        -2.4990    0.5516   46.2003 H       1  ZINC000179496896    0.0700
     41 H41        -1.1652    0.1694   47.3152 H       1  ZINC000179496896    0.0700
     42 H42        -2.0447    4.1826   46.1443 H       1  ZINC000179496896    0.0600
     43 H43        -1.5924    3.0070   44.8866 H       1  ZINC000179496896    0.0700
     44 H44        -3.1380    2.8338   45.7523 H       1  ZINC000179496896    0.0600
     45 H45        -0.9849    1.1444   49.4304 H       1  ZINC000179496896    0.0400
     46 H46        -0.2070    2.7134   49.1047 H       1  ZINC000179496896    0.0900
     47 H47        -1.1907    2.4458   51.4585 H       1  ZINC000179496896    0.0800
     48 H48        -1.7606    3.8736   50.5547 H       1  ZINC000179496896    0.0900
     49 H49        -5.8326    0.8904   49.2965 H       1  ZINC000179496896    0.1400
     50 H50        -6.4884    1.3307   51.6978 H       1  ZINC000179496896    0.1600
     51 H51        -3.9901    1.8540   47.5341 H       1  ZINC000179496896    0.0900
     52 H52        -2.9605    0.5332   48.1460 H       1  ZINC000179496896    0.0500
     53 H53         2.9973    0.9686   43.7055 H       1  ZINC000179496896    0.1300
@<TRIPOS>BOND
     1     1     2    1
     2     1    29    1
     3     1    30    1
     4     1    31    1
     5     2     3    1
     6     2     4    1
     7     2    32    1
     8     3    33    1
     9     3    34    1
    10     3    35    1
    11     4     5    1
    12     4    36    1
    13     4    37    1
    14     5    25    1
    15     5     6    1
    16     6     7    2
    17     7     8    1
    18     7    38    1
    19     8     9    1
    20     8    25    2
    21     9    10    2
    22     9    11   am
    23    11    12    1
    24    11    39    1
    25    12    13    1
    26    12    40    1
    27    12    41    1
    28    13    14    1
    29    13    15    1
    30    13    16    1
    31    15    42    1
    32    15    43    1
    33    15    44    1
    34    16    24    1
    35    16    17    1
    36    17    18    1
    37    17    45    1
    38    17    46    1
    39    18    19    1
    40    18    47    1
    41    18    48    1
    42    19    23    1
    43    19    20    2
    44    20    21    1
    45    20    24    1
    46    21    22    2
    47    21    49    1
    48    22    23    1
    49    22    50    1
    50    24    51    1
    51    24    52    1
    52    25    26    1
    53    26    27    1
    54    26    28    1
    55    26    53    1
@<TRIPOS>SUBSTRUCTURE
     1 ZINC000179496896        1 TEMP              0 ****  ****    0 ROOT


##########                                Name:    ZINC000583220082
##########                DOCK_Rotatable_Bonds:                   9
##########                         Heavy_Atoms:                  29
##########                    Molecular_Weight:             417.492
##########                DOCK_Rotatable_Bonds:                   9
##########                       Formal_Charge:          -0.0400006
##########                     HBond_Acceptors:                  11
##########                        HBond_Donors:                   3
##########                         Heavy_Atoms:                  29
##########                          Grid_Score:          -35.617622
##########                     Grid_vdw_energy:          -34.221836
##########                      Grid_es_energy:           -1.395788
##########           Internal_energy_repulsive:           16.593477

@<TRIPOS>MOLECULE
ZINC000583220082
 52 54 1 0 0
SMALL
USER_CHARGES


@<TRIPOS>ATOM
      1 C1         -9.0982    0.5155   67.7331 C.3     1  ZINC000583220082    0.0800
      2 N2         -9.0620    0.9770   66.3432 N.am    1  ZINC000583220082   -0.6300
      3 C3         -7.8285    0.8542   65.5624 C.3     1  ZINC000583220082    0.0800
      4 C4        -10.1636    1.5146   65.7827 C.2     1  ZINC000583220082    0.5100
      5 O5        -11.1843    1.6176   66.4296 O.2     1  ZINC000583220082   -0.5300
      6 C6        -10.1269    1.9876   64.3524 C.3     1  ZINC000583220082   -0.1000
      7 C7        -10.6585    0.9033   63.4509 C.ar    1  ZINC000583220082   -0.0800
      8 C8        -12.0047    0.5876   63.4713 C.ar    1  ZINC000583220082   -0.0800
      9 C9        -12.4953   -0.4055   62.6465 C.ar    1  ZINC000583220082   -0.1400
     10 C10       -11.6347   -1.0871   61.7951 C.ar    1  ZINC000583220082    0.1400
     11 N11       -12.1277   -2.0921   60.9589 N.am    1  ZINC000583220082   -0.6400
     12 C12       -13.0430   -1.7949   60.0153 C.2     1  ZINC000583220082    0.5100
     13 O13       -13.4390   -0.6542   59.8918 O.2     1  ZINC000583220082   -0.4900
     14 C14       -13.5700   -2.8692   59.1214 C.2     1  ZINC000583220082    0.5100
     15 O15       -14.6294   -3.4041   59.3749 O.2     1  ZINC000583220082   -0.5100
     16 N16       -12.8689   -3.2446   58.0332 N.am    1  ZINC000583220082   -0.5800
     17 C17       -13.3727   -4.2958   57.1364 C.3     1  ZINC000583220082    0.0600
     18 C18       -13.3382   -3.7669   55.6987 C.3     1  ZINC000583220082    0.0300
     19 N19       -11.9859   -3.2830   55.3906 N.3     1  ZINC000583220082   -0.4300
     20 C20       -11.8720   -2.9477   54.0540 C.2     1  ZINC000583220082    0.2900
     21 N21       -12.4318   -1.9306   53.4336 N.2     1  ZINC000583220082   -0.5700
     22 C22       -12.1789   -1.8085   52.1469 C.2     1  ZINC000583220082    0.5400
     23 N23       -12.7237   -0.7647   51.4001 N.pl3   1  ZINC000583220082   -0.8200
     24 N24       -11.3994   -2.6998   51.5950 N.2     1  ZINC000583220082   -0.5500
     25 S25       -10.9611   -3.7667   52.8427 S.3     1  ZINC000583220082    0.2000
     26 C26       -11.6162   -2.1508   56.2506 C.3     1  ZINC000583220082    0.0500
     27 C27       -11.5830   -2.6093   57.7076 C.3     1  ZINC000583220082    0.1100
     28 C28       -10.2829   -0.7670   61.7768 C.ar    1  ZINC000583220082   -0.1200
     29 C29        -9.8001    0.2304   62.6008 C.ar    1  ZINC000583220082   -0.0800
     30 H30        -8.8135    1.3334   68.3951 H       1  ZINC000583220082    0.0500
     31 H31       -10.1066    0.1829   67.9795 H       1  ZINC000583220082    0.0800
     32 H32        -8.4014   -0.3132   67.8590 H       1  ZINC000583220082    0.0700
     33 H33        -7.0523    0.4001   66.1785 H       1  ZINC000583220082    0.0800
     34 H34        -8.0120    0.2281   64.6893 H       1  ZINC000583220082    0.0600
     35 H35        -7.5035    1.8429   65.2387 H       1  ZINC000583220082    0.0600
     36 H36       -10.7433    2.8806   64.2491 H       1  ZINC000583220082    0.1000
     37 H37        -9.0995    2.2211   64.0732 H       1  ZINC000583220082    0.1000
     38 H38       -12.6732    1.1179   64.1335 H       1  ZINC000583220082    0.1300
     39 H39       -13.5466   -0.6520   62.6635 H       1  ZINC000583220082    0.1300
     40 H40       -11.8113   -3.0038   61.0575 H       1  ZINC000583220082    0.4200
     41 H41       -12.7398   -5.1798   57.2166 H       1  ZINC000583220082    0.0900
     42 H42       -14.3970   -4.5496   57.4087 H       1  ZINC000583220082    0.1700
     43 H43       -13.6033   -4.5688   55.0096 H       1  ZINC000583220082    0.1100
     44 H44       -14.0499   -2.9478   55.5952 H       1  ZINC000583220082    0.0700
     45 H45       -13.2441   -0.0741   51.8397 H       1  ZINC000583220082    0.4200
     46 H46       -12.5822   -0.7291   50.4412 H       1  ZINC000583220082    0.4200
     47 H47       -10.6324   -1.7808   55.9618 H       1  ZINC000583220082    0.1100
     48 H48       -12.3519   -1.3544   56.1395 H       1  ZINC000583220082    0.0600
     49 H49       -11.4222   -1.7498   58.3584 H       1  ZINC000583220082    0.1100
     50 H50       -10.7790   -3.3323   57.8457 H       1  ZINC000583220082    0.0900
     51 H51        -9.6112   -1.2949   61.1161 H       1  ZINC000583220082    0.1400
     52 H52        -8.7493    0.4798   62.5871 H       1  ZINC000583220082    0.1300
@<TRIPOS>BOND
     1     1     2    1
     2     1    30    1
     3     1    31    1
     4     1    32    1
     5     2     3    1
     6     2     4   am
     7     3    33    1
     8     3    34    1
     9     3    35    1
    10     4     5    2
    11     4     6    1
    12     6     7    1
    13     6    36    1
    14     6    37    1
    15     7    29   ar
    16     7     8   ar
    17     8     9   ar
    18     8    38    1
    19     9    10   ar
    20     9    39    1
    21    10    11    1
    22    10    28   ar
    23    11    12   am
    24    11    40    1
    25    12    13    2
    26    12    14    1
    27    14    15    2
    28    14    16   am
    29    16    27    1
    30    16    17    1
    31    17    18    1
    32    17    41    1
    33    17    42    1
    34    18    19    1
    35    18    43    1
    36    18    44    1
    37    19    20    1
    38    19    26    1
    39    20    25    1
    40    20    21    2
    41    21    22    1
    42    22    23    1
    43    22    24    2
    44    23    45    1
    45    23    46    1
    46    24    25    1
    47    26    27    1
    48    26    47    1
    49    26    48    1
    50    27    49    1
    51    27    50    1
    52    28    29   ar
    53    28    51    1
    54    29    52    1
@<TRIPOS>SUBSTRUCTURE
     1 ZINC000583220082        1 TEMP              0 ****  ****    0 ROOT


##########                                Name:    ZINC000590699876
##########                DOCK_Rotatable_Bonds:                   9
##########                         Heavy_Atoms:                  30
##########                    Molecular_Weight:              421.54
##########                DOCK_Rotatable_Bonds:                   9
##########                       Formal_Charge:          -0.0300004
##########                     HBond_Acceptors:                   9
##########                        HBond_Donors:                   1
##########                         Heavy_Atoms:                  30
##########                          Grid_Score:          -35.594879
##########                     Grid_vdw_energy:          -33.969017
##########                      Grid_es_energy:           -1.625862
##########           Internal_energy_repulsive:          104.983955

@<TRIPOS>MOLECULE
ZINC000590699876
 65 67 1 0 0
SMALL
USER_CHARGES


@<TRIPOS>ATOM
      1 C1        -13.2349   -1.0252   50.9778 C.3     1  ZINC000590699876   -0.1700
      2 C2        -12.2192   -1.6540   51.8964 C.2     1  ZINC000590699876    0.5100
      3 O3        -11.1950   -1.0621   52.1638 O.2     1  ZINC000590699876   -0.5500
      4 N4        -12.4489   -2.8740   52.4208 N.am    1  ZINC000590699876   -0.7200
      5 C5        -11.4623   -3.4846   53.3153 C.3     1  ZINC000590699876    0.1100
      6 C6        -11.7139   -3.0261   54.7287 C.2     1  ZINC000590699876    0.5300
      7 O7        -11.0673   -2.1114   55.1935 O.2     1  ZINC000590699876   -0.5200
      8 N8        -12.6572   -3.6326   55.4760 N.am    1  ZINC000590699876   -0.6000
      9 C9        -13.5119   -4.7515   55.0387 C.3     1  ZINC000590699876    0.1000
     10 C10       -13.9325   -5.4645   56.3480 C.3     1  ZINC000590699876   -0.1300
     11 C11       -14.1128   -4.2629   57.3129 C.3     1  ZINC000590699876   -0.1300
     12 C12       -13.0001   -3.2922   56.8645 C.3     1  ZINC000590699876    0.1200
     13 H13       -13.3633   -2.2655   56.9104 H       1  ZINC000590699876    0.1000
     14 C14       -11.7939   -3.4491   57.7542 C.2     1  ZINC000590699876    0.5100
     15 O15       -10.8217   -4.0553   57.3563 O.2     1  ZINC000590699876   -0.5200
     16 N16       -11.7955   -2.9159   58.9919 N.am    1  ZINC000590699876   -0.6100
     17 C17       -10.6258   -3.0506   59.8734 C.3     1  ZINC000590699876    0.1000
     18 C18       -10.2494   -1.6610   60.3984 C.3     1  ZINC000590699876    0.0400
     19 N19       -11.4270   -1.0401   61.0195 N.3     1  ZINC000590699876   -0.5200
     20 C20       -11.0682    0.2185   61.6866 C.3     1  ZINC000590699876    0.0400
     21 C21       -12.1536    0.5978   62.6607 C.2     1  ZINC000590699876    0.5200
     22 O22       -13.0778   -0.1606   62.8644 O.2     1  ZINC000590699876   -0.5100
     23 N23       -12.0972    1.7799   63.3057 N.am    1  ZINC000590699876   -0.6100
     24 C24       -10.9840    2.7092   63.0697 C.3     1  ZINC000590699876    0.1100
     25 C25       -10.3531    3.0751   64.4168 C.3     1  ZINC000590699876   -0.1400
     26 C26       -11.4363    3.6168   65.3524 C.3     1  ZINC000590699876   -0.1200
     27 C27       -12.4931    2.5361   65.5917 C.3     1  ZINC000590699876   -0.1300
     28 C28       -13.1512    2.1665   64.2537 C.3     1  ZINC000590699876    0.1400
     29 H29       -13.7007    3.0248   63.8672 H       1  ZINC000590699876    0.0700
     30 C30       -14.1115    0.9936   64.4611 C.3     1  ZINC000590699876   -0.1400
     31 C31       -12.4982   -0.8284   60.0369 C.3     1  ZINC000590699876    0.0400
     32 C32       -12.9646   -2.1785   59.4948 C.3     1  ZINC000590699876    0.1200
     33 H33       -12.8776   -0.0470   50.6562 H       1  ZINC000590699876    0.1000
     34 H34       -13.3808   -1.6633   50.1062 H       1  ZINC000590699876    0.0900
     35 H35       -14.1813   -0.9107   51.5065 H       1  ZINC000590699876    0.0900
     36 H36       -13.2675   -3.3480   52.2060 H       1  ZINC000590699876    0.4100
     37 H37       -11.5486   -4.5700   53.2647 H       1  ZINC000590699876    0.1000
     38 H38       -10.4600   -3.1851   53.0091 H       1  ZINC000590699876    0.1000
     39 H39       -14.3895   -4.3753   54.5128 H       1  ZINC000590699876    0.0800
     40 H40       -12.9486   -5.4319   54.4002 H       1  ZINC000590699876    0.0800
     41 H41       -14.8707   -6.0033   56.2155 H       1  ZINC000590699876    0.0900
     42 H42       -13.1461   -6.1328   56.6989 H       1  ZINC000590699876    0.0800
     43 H43       -15.0971   -3.8117   57.1873 H       1  ZINC000590699876    0.1000
     44 H44       -13.9582   -4.5719   58.3467 H       1  ZINC000590699876    0.0900
     45 H45       -10.8715   -3.7041   60.7104 H       1  ZINC000590699876    0.0800
     46 H46        -9.7904   -3.4686   59.3118 H       1  ZINC000590699876    0.0900
     47 H47        -9.4547   -1.7549   61.1386 H       1  ZINC000590699876    0.0900
     48 H48        -9.9048   -1.0406   59.5710 H       1  ZINC000590699876    0.0400
     49 H49       -10.1276    0.0905   62.2224 H       1  ZINC000590699876    0.1000
     50 H50       -10.9574    1.0060   60.9413 H       1  ZINC000590699876    0.0600
     51 H51       -10.2379    2.2317   62.4345 H       1  ZINC000590699876    0.0800
     52 H52       -11.3572    3.6107   62.5840 H       1  ZINC000590699876    0.0700
     53 H53        -9.9003    2.1880   64.8596 H       1  ZINC000590699876    0.0700
     54 H54        -9.5886    3.8373   64.2655 H       1  ZINC000590699876    0.0800
     55 H55       -10.9858    3.9011   66.3034 H       1  ZINC000590699876    0.0700
     56 H56       -11.9055    4.4894   64.8980 H       1  ZINC000590699876    0.0600
     57 H57       -12.0202    1.6540   66.0234 H       1  ZINC000590699876    0.0700
     58 H58       -13.2519    2.9147   66.2766 H       1  ZINC000590699876    0.0700
     59 H59       -14.8463    1.2559   65.2224 H       1  ZINC000590699876    0.0400
     60 H60       -14.6225    0.7722   63.5241 H       1  ZINC000590699876    0.0700
     61 H61       -13.5501    0.1171   64.7847 H       1  ZINC000590699876    0.0700
     62 H62       -13.3346   -0.3184   60.5149 H       1  ZINC000590699876    0.1100
     63 H63       -12.1224   -0.2195   59.2145 H       1  ZINC000590699876    0.0300
     64 H64       -13.6767   -2.0216   58.6847 H       1  ZINC000590699876    0.0900
     65 H65       -13.4352   -2.7512   60.2939 H       1  ZINC000590699876    0.0800
@<TRIPOS>BOND
     1     1     2    1
     2     1    33    1
     3     1    34    1
     4     1    35    1
     5     2     3    2
     6     2     4   am
     7     4     5    1
     8     4    36    1
     9     5     6    1
    10     5    37    1
    11     5    38    1
    12     6     7    2
    13     6     8   am
    14     8    12    1
    15     8     9    1
    16     9    10    1
    17     9    39    1
    18     9    40    1
    19    10    11    1
    20    10    41    1
    21    10    42    1
    22    11    12    1
    23    11    43    1
    24    11    44    1
    25    12    13    1
    26    12    14    1
    27    14    15    2
    28    14    16   am
    29    16    32    1
    30    16    17    1
    31    17    18    1
    32    17    45    1
    33    17    46    1
    34    18    19    1
    35    18    47    1
    36    18    48    1
    37    19    20    1
    38    19    31    1
    39    20    21    1
    40    20    49    1
    41    20    50    1
    42    21    22    2
    43    21    23   am
    44    23    28    1
    45    23    24    1
    46    24    25    1
    47    24    51    1
    48    24    52    1
    49    25    26    1
    50    25    53    1
    51    25    54    1
    52    26    27    1
    53    26    55    1
    54    26    56    1
    55    27    28    1
    56    27    57    1
    57    27    58    1
    58    28    29    1
    59    28    30    1
    60    30    59    1
    61    30    60    1
    62    30    61    1
    63    31    32    1
    64    31    62    1
    65    31    63    1
    66    32    64    1
    67    32    65    1
@<TRIPOS>SUBSTRUCTURE
     1 ZINC000590699876        1 TEMP              0 ****  ****    0 ROOT


##########                                Name:    ZINC000821442454
##########                DOCK_Rotatable_Bonds:                   6
##########                         Heavy_Atoms:                  26
##########                    Molecular_Weight:             398.873
##########                DOCK_Rotatable_Bonds:                   6
##########                       Formal_Charge:          -0.0399996
##########                     HBond_Acceptors:                  11
##########                        HBond_Donors:                   2
##########                         Heavy_Atoms:                  26
##########                          Grid_Score:          -35.593533
##########                     Grid_vdw_energy:          -35.668564
##########                      Grid_es_energy:            0.075030
##########           Internal_energy_repulsive:            9.274955

@<TRIPOS>MOLECULE
ZINC000821442454
 45 47 1 0 0
SMALL
USER_CHARGES


@<TRIPOS>ATOM
      1 C1        -12.4595   -1.8336   51.4938 C.3     1  ZINC000821442454   -0.1500
      2 C2        -12.8971   -2.3341   52.8718 C.3     1  ZINC000821442454   -0.6300
      3 S3        -11.4803   -3.0839   53.7209 S.o2    1  ZINC000821442454    2.6000
      4 O4        -11.0949   -4.2907   53.0773 O.2     1  ZINC000821442454   -0.9500
      5 O5        -10.5186   -2.0930   54.0564 O.2     1  ZINC000821442454   -0.9500
      6 N6        -12.0867   -3.5755   55.1814 N.am    1  ZINC000821442454   -1.0000
      7 C7        -13.1853   -4.5489   55.2463 C.3     1  ZINC000821442454    0.1100
      8 C8        -14.3139   -3.9623   56.1002 C.3     1  ZINC000821442454   -0.1300
      9 C9        -13.7556   -3.5527   57.4649 C.3     1  ZINC000821442454   -0.1100
     10 C10       -12.6830   -2.4774   57.2773 C.3     1  ZINC000821442454   -0.1200
     11 H11       -13.1157   -1.6171   56.7665 H       1  ZINC000821442454    0.1100
     12 C12       -12.1572   -2.0509   58.6237 C.2     1  ZINC000821442454    0.5300
     13 O13       -12.7816   -2.3141   59.6296 O.2     1  ZINC000821442454   -0.5100
     14 N14       -10.9932   -1.3771   58.7099 N.am    1  ZINC000821442454   -0.6700
     15 C15       -10.5052   -0.9813   59.9596 C.ar    1  ZINC000821442454    0.1800
     16 C16       -10.8410    0.2653   60.4723 C.ar    1  ZINC000821442454   -0.1200
     17 C17       -10.3614    0.6576   61.7045 C.ar    1  ZINC000821442454   -0.0500
     18 C18        -9.5393   -0.1972   62.4358 C.ar    1  ZINC000821442454   -0.0300
     19 C19        -9.0227    0.2232   63.7621 C.2     1  ZINC000821442454    0.2200
     20 N20        -9.0982    1.4286   64.2906 N.2     1  ZINC000821442454   -0.2900
     21 N21        -8.5363    1.3869   65.4497 N.pl3   1  ZINC000821442454   -0.2200
     22 N22        -8.1074    0.1937   65.6723 N.2     1  ZINC000821442454   -0.0400
     23 N23        -8.3936   -0.5503   64.6584 N.2     1  ZINC000821442454   -0.2700
     24 C24        -9.2029   -1.4478   61.9204 C.ar    1  ZINC000821442454   -0.0500
     25 C25        -9.6890   -1.8387   60.6898 C.ar    1  ZINC000821442454   -0.0800
     26 Cl26       -9.2708   -3.3960   60.0467 Cl      1  ZINC000821442454   -0.0500
     27 C27       -11.5321   -3.0514   56.4369 C.3     1  ZINC000821442454    0.1400
     28 H28       -11.6710   -1.0902   51.6109 H       1  ZINC000821442454    0.0700
     29 H29       -12.0847   -2.6710   50.9053 H       1  ZINC000821442454    0.0700
     30 H30       -13.3109   -1.3831   50.9837 H       1  ZINC000821442454    0.0800
     31 H31       -13.2719   -1.4966   53.4603 H       1  ZINC000821442454    0.1300
     32 H32       -13.6856   -3.0776   52.7547 H       1  ZINC000821442454    0.1300
     33 H33       -13.5548   -4.7506   54.2409 H       1  ZINC000821442454    0.1000
     34 H34       -12.8278   -5.4739   55.6988 H       1  ZINC000821442454    0.0700
     35 H35       -14.7313   -3.0881   55.6006 H       1  ZINC000821442454    0.0700
     36 H36       -15.0941   -4.7113   56.2362 H       1  ZINC000821442454    0.0800
     37 H37       -14.5615   -3.1577   58.0834 H       1  ZINC000821442454    0.0700
     38 H38       -13.3162   -4.4224   57.9534 H       1  ZINC000821442454    0.0800
     39 H39       -10.4939   -1.1666   57.9054 H       1  ZINC000821442454    0.4200
     40 H40       -11.4780    0.9281   59.9053 H       1  ZINC000821442454    0.1600
     41 H41       -10.6227    1.6270   62.1022 H       1  ZINC000821442454    0.1500
     42 H42        -8.4499    2.1369   66.0586 H       1  ZINC000821442454    0.4800
     43 H43        -8.5658   -2.1118   62.4856 H       1  ZINC000821442454    0.1500
     44 H44       -11.0412   -3.8531   56.9886 H       1  ZINC000821442454    0.0800
     45 H45       -10.8124   -2.2631   56.2161 H       1  ZINC000821442454    0.1000
@<TRIPOS>BOND
     1     1     2    1
     2     1    28    1
     3     1    29    1
     4     1    30    1
     5     2     3    1
     6     2    31    1
     7     2    32    1
     8     3     4    2
     9     3     5    2
    10     3     6   am
    11     6    27    1
    12     6     7    1
    13     7     8    1
    14     7    33    1
    15     7    34    1
    16     8     9    1
    17     8    35    1
    18     8    36    1
    19     9    10    1
    20     9    37    1
    21     9    38    1
    22    10    11    1
    23    10    12    1
    24    10    27    1
    25    12    13    2
    26    12    14   am
    27    14    15    1
    28    14    39    1
    29    15    25   ar
    30    15    16   ar
    31    16    17   ar
    32    16    40    1
    33    17    18   ar
    34    17    41    1
    35    18    19    1
    36    18    24   ar
    37    19    23    1
    38    19    20    2
    39    20    21    1
    40    21    22    1
    41    21    42    1
    42    22    23    2
    43    24    25   ar
    44    24    43    1
    45    25    26    1
    46    27    44    1
    47    27    45    1
@<TRIPOS>SUBSTRUCTURE
     1 ZINC000821442454        1 TEMP              0 ****  ****    0 ROOT


##########                                Name:    ZINC000740843182
##########                DOCK_Rotatable_Bonds:                  10
##########                         Heavy_Atoms:                  24
##########                    Molecular_Weight:              419.34
##########                DOCK_Rotatable_Bonds:                  10
##########                       Formal_Charge:          0.00999957
##########                     HBond_Acceptors:                   7
##########                        HBond_Donors:                   3
##########                         Heavy_Atoms:                  24
##########                          Grid_Score:          -35.587200
##########                     Grid_vdw_energy:          -35.261166
##########                      Grid_es_energy:           -0.326036
##########           Internal_energy_repulsive:           10.386750

@<TRIPOS>MOLECULE
ZINC000740843182
 47 48 1 0 0
SMALL
USER_CHARGES


@<TRIPOS>ATOM
      1 C1        -14.9526   -2.6046   52.7481 C.3     1  ZINC000740843182   -0.1500
      2 C2        -13.7223   -2.5716   53.6573 C.3     1  ZINC000740843182   -0.1000
      3 H3        -13.6434   -1.5908   54.1262 H       1  ZINC000740843182    0.0900
      4 C4        -13.8589   -3.6447   54.7392 C.3     1  ZINC000740843182    0.1200
      5 N5        -13.3719   -3.1161   56.0157 N.am    1  ZINC000740843182   -0.7200
      6 C6        -13.4630   -3.8636   57.1334 C.2     1  ZINC000740843182    0.5500
      7 O7        -13.9507   -4.9760   57.0826 O.2     1  ZINC000740843182   -0.5000
      8 C8        -12.9701   -3.3309   58.4209 C.ar    1  ZINC000740843182   -0.1300
      9 C9        -11.5987   -3.2531   58.6684 C.ar    1  ZINC000740843182    0.0200
     10 C10       -11.1452   -2.7544   59.8720 C.ar    1  ZINC000740843182   -0.6800
     11 S11        -9.4142   -2.6554   60.1860 S.o2    1  ZINC000740843182    2.7000
     12 O12        -9.2741   -2.1483   61.5059 O.2     1  ZINC000740843182   -0.9400
     13 O13        -8.8589   -3.8943   59.7663 O.2     1  ZINC000740843182   -0.9500
     14 N14        -8.7976   -1.4995   59.1730 N.am    1  ZINC000740843182   -1.0900
     15 C15        -9.2866   -0.1208   59.2511 C.3     1  ZINC000740843182    0.0800
     16 C16        -8.8764    0.8388   58.1323 C.3     1  ZINC000740843182   -0.1800
     17 C17       -10.3152    0.3241   58.2095 C.3     1  ZINC000740843182   -0.1900
     18 C18       -12.0461   -2.3313   60.8332 C.ar    1  ZINC000740843182    0.0100
     19 C19       -13.4067   -2.4052   60.5955 C.ar    1  ZINC000740843182   -0.1200
     20 C20       -13.8746   -2.8977   59.3934 C.ar    1  ZINC000740843182    0.0100
     21 Br21      -15.7350   -2.9983   59.0697 Br      1  ZINC000740843182    0.0100
     22 C22       -12.4666   -2.8421   52.8261 C.3     1  ZINC000740843182   -0.1400
     23 C23       -11.4057   -1.7873   53.1469 C.3     1  ZINC000740843182    0.1000
     24 H24       -11.8142   -0.7936   52.9633 H       1  ZINC000740843182    0.1000
     25 C25       -10.1813   -2.0081   52.2564 C.3     1  ZINC000740843182   -0.1900
     26 O26       -11.0229   -1.8987   54.5192 O.3     1  ZINC000740843182   -0.5600
     27 H27       -14.8554   -1.8401   51.9773 H       1  ZINC000740843182    0.0600
     28 H28       -15.0315   -3.5854   52.2792 H       1  ZINC000740843182    0.0600
     29 H29       -15.8472   -2.4119   53.3402 H       1  ZINC000740843182    0.0500
     30 H30       -14.9065   -3.9285   54.8393 H       1  ZINC000740843182    0.0700
     31 H31       -13.2708   -4.5190   54.4599 H       1  ZINC000740843182    0.0700
     32 H32       -12.9839   -2.2281   56.0564 H       1  ZINC000740843182    0.4000
     33 H33       -10.8940   -3.5828   57.9193 H       1  ZINC000740843182    0.1500
     34 H34        -8.1126   -1.7354   58.5280 H       1  ZINC000740843182    0.4200
     35 H35        -9.3796    0.2888   60.2570 H       1  ZINC000740843182    0.1400
     36 H36        -8.6992    1.8799   58.4020 H       1  ZINC000740843182    0.1100
     37 H37        -8.2427    0.4442   57.3381 H       1  ZINC000740843182    0.1000
     38 H38       -10.6279   -0.4091   57.4660 H       1  ZINC000740843182    0.1000
     39 H39       -11.0845    1.0266   58.5299 H       1  ZINC000740843182    0.1100
     40 H40       -11.6852   -1.9418   61.7737 H       1  ZINC000740843182    0.1600
     41 H41       -14.1045   -2.0733   61.3500 H       1  ZINC000740843182    0.1500
     42 H42       -12.0787   -3.8321   53.0657 H       1  ZINC000740843182    0.0700
     43 H43       -12.7157   -2.7962   51.7660 H       1  ZINC000740843182    0.0800
     44 H44       -10.4734   -1.9230   51.2097 H       1  ZINC000740843182    0.0700
     45 H45        -9.4256   -1.2566   52.4849 H       1  ZINC000740843182    0.0600
     46 H46        -9.7729   -3.0018   52.4400 H       1  ZINC000740843182    0.0600
     47 H47       -10.3391   -1.2704   54.7890 H       1  ZINC000740843182    0.3700
@<TRIPOS>BOND
     1     1     2    1
     2     1    27    1
     3     1    28    1
     4     1    29    1
     5     2     3    1
     6     2     4    1
     7     2    22    1
     8     4     5    1
     9     4    30    1
    10     4    31    1
    11     5     6   am
    12     5    32    1
    13     6     7    2
    14     6     8    1
    15     8    20   ar
    16     8     9   ar
    17     9    10   ar
    18     9    33    1
    19    10    11    1
    20    10    18   ar
    21    11    12    2
    22    11    13    2
    23    11    14   am
    24    14    15    1
    25    14    34    1
    26    15    17    1
    27    15    16    1
    28    15    35    1
    29    16    17    1
    30    16    36    1
    31    16    37    1
    32    17    38    1
    33    17    39    1
    34    18    19   ar
    35    18    40    1
    36    19    20   ar
    37    19    41    1
    38    20    21    1
    39    22    23    1
    40    22    42    1
    41    22    43    1
    42    23    24    1
    43    23    25    1
    44    23    26    1
    45    25    44    1
    46    25    45    1
    47    25    46    1
    48    26    47    1
@<TRIPOS>SUBSTRUCTURE
     1 ZINC000740843182        1 TEMP              0 ****  ****    0 ROOT


##########                                Name:    ZINC000266467123
##########                DOCK_Rotatable_Bonds:                   9
##########                         Heavy_Atoms:                  25
##########                    Molecular_Weight:             337.421
##########                DOCK_Rotatable_Bonds:                   9
##########                       Formal_Charge:                0.02
##########                     HBond_Acceptors:                   5
##########                        HBond_Donors:                   3
##########                         Heavy_Atoms:                  25
##########                          Grid_Score:          -35.584251
##########                     Grid_vdw_energy:          -35.480114
##########                      Grid_es_energy:           -0.104139
##########           Internal_energy_repulsive:           10.139151

@<TRIPOS>MOLECULE
ZINC000266467123
 48 50 1 0 0
SMALL
USER_CHARGES


@<TRIPOS>ATOM
      1 C1        -14.0537   -5.9440   56.8187 C.3     1  <0>        -0.1600
      2 C2        -13.8691   -4.4753   56.4319 C.3     1  <0>         0.1500
      3 H3        -14.8302   -3.9635   56.4799 H       1  <0>         0.1200
      4 N4        -13.3391   -4.3923   55.0686 N.am    1  <0>        -0.7300
      5 C5        -13.5712   -3.2952   54.3209 C.2     1  <0>         0.7100
      6 O6        -14.2192   -2.3738   54.7784 O.2     1  <0>        -0.5900
      7 N7        -13.0850   -3.2196   53.0663 N.am    1  <0>        -0.7100
      8 C8        -13.3358   -2.0264   52.2542 C.3     1  <0>         0.1100
      9 H9        -14.3832   -1.8181   52.0355 H       1  <0>         0.1400
     10 C10       -12.3061   -1.6745   51.1786 C.3     1  <0>        -0.1900
     11 C11       -12.4038   -0.8291   52.4510 C.3     1  <0>        -0.1500
     12 H12       -12.8377    0.1668   52.3615 H       1  <0>         0.1200
     13 C13       -11.2803   -0.9693   53.4802 C.3     1  <0>        -0.0500
     14 C14        -9.9755   -0.5385   52.8614 C.ar    1  <0>        -0.0800
     15 C15        -9.6314    0.8001   52.8357 C.ar    1  <0>        -0.1100
     16 C16        -8.4345    1.1953   52.2682 C.ar    1  <0>        -0.1200
     17 C17        -7.5815    0.2519   51.7267 C.ar    1  <0>        -0.1200
     18 C18        -7.9251   -1.0868   51.7533 C.ar    1  <0>        -0.1200
     19 C19        -9.1201   -1.4825   52.3247 C.ar    1  <0>        -0.1200
     20 C20       -12.9036   -3.8219   57.3869 C.2     1  <0>         0.5100
     21 O21       -13.3212   -3.2060   58.3447 O.2     1  <0>        -0.5100
     22 N22       -11.5762   -3.9219   57.1766 N.am    1  <0>        -0.6700
     23 C23       -10.6797   -3.3152   58.0633 C.ar    1  <0>         0.1400
     24 C24       -10.5243   -1.9352   58.0600 C.ar    1  <0>        -0.1400
     25 C25        -9.6386   -1.3394   58.9365 C.ar    1  <0>        -0.1000
     26 C26        -8.9067   -2.1155   59.8163 C.ar    1  <0>        -0.1300
     27 C27        -9.0588   -3.4899   59.8217 C.ar    1  <0>        -0.1000
     28 C28        -9.9477   -4.0913   58.9524 C.ar    1  <0>        -0.1200
     29 H29       -14.4480   -6.0059   57.8329 H       1  <0>         0.0700
     30 H30       -14.7520   -6.4167   56.1280 H       1  <0>         0.0800
     31 H31       -13.0926   -6.4560   56.7707 H       1  <0>         0.0700
     32 H32       -12.8210   -5.1269   54.7041 H       1  <0>         0.4100
     33 H33       -12.5690   -3.9552   52.7010 H       1  <0>         0.4000
     34 H34       -11.4421   -2.3308   51.0752 H       1  <0>         0.1000
     35 H35       -12.6760   -1.2344   50.2525 H       1  <0>         0.1000
     36 H36       -11.4981   -0.3406   54.3436 H       1  <0>         0.0800
     37 H37       -11.2061   -2.0094   53.7976 H       1  <0>         0.0700
     38 H38       -10.2980    1.5371   53.2587 H       1  <0>         0.1200
     39 H39        -8.1661    2.2412   52.2474 H       1  <0>         0.1200
     40 H40        -6.6467    0.5607   51.2827 H       1  <0>         0.1200
     41 H41        -7.2588   -1.8239   51.3301 H       1  <0>         0.1200
     42 H42        -9.3885   -2.5283   52.3455 H       1  <0>         0.1200
     43 H43       -11.2422   -4.4145   56.4106 H       1  <0>         0.4100
     44 H44       -11.0952   -1.3286   57.3727 H       1  <0>         0.1300
     45 H45        -9.5174   -0.2662   58.9344 H       1  <0>         0.1300
     46 H46        -8.2145   -1.6473   60.5004 H       1  <0>         0.1200
     47 H47        -8.4851   -4.0934   60.5095 H       1  <0>         0.1300
     48 H48       -10.0660   -5.1648   58.9570 H       1  <0>         0.1400
@<TRIPOS>BOND
     1     1     2    1
     2     1    29    1
     3     1    30    1
     4     1    31    1
     5     2     3    1
     6     2     4    1
     7     2    20    1
     8     4     5   am
     9     4    32    1
    10     5     6    2
    11     5     7   am
    12     7     8    1
    13     7    33    1
    14     8     9    1
    15     8    11    1
    16     8    10    1
    17    10    11    1
    18    10    34    1
    19    10    35    1
    20    11    12    1
    21    11    13    1
    22    13    14    1
    23    13    36    1
    24    13    37    1
    25    14    19   ar
    26    14    15   ar
    27    15    16   ar
    28    15    38    1
    29    16    17   ar
    30    16    39    1
    31    17    18   ar
    32    17    40    1
    33    18    19   ar
    34    18    41    1
    35    19    42    1
    36    20    21    2
    37    20    22   am
    38    22    23    1
    39    22    43    1
    40    23    28   ar
    41    23    24   ar
    42    24    25   ar
    43    24    44    1
    44    25    26   ar
    45    25    45    1
    46    26    27   ar
    47    26    46    1
    48    27    28   ar
    49    27    47    1
    50    28    48    1
@<TRIPOS>SUBSTRUCTURE
     1 <0>         1 TEMP              0 ****  ****    0 ROOT


##########                                Name:    ZINC000373715094
##########                DOCK_Rotatable_Bonds:                   6
##########                         Heavy_Atoms:                  27
##########                    Molecular_Weight:             362.431
##########                DOCK_Rotatable_Bonds:                   6
##########                       Formal_Charge:           0.0299999
##########                     HBond_Acceptors:                   6
##########                        HBond_Donors:                   2
##########                         Heavy_Atoms:                  27
##########                          Grid_Score:          -35.570023
##########                     Grid_vdw_energy:          -34.343353
##########                      Grid_es_energy:           -1.226668
##########           Internal_energy_repulsive:           13.256958

@<TRIPOS>MOLECULE
ZINC000373715094
 49 52 1 0 0
SMALL
USER_CHARGES


@<TRIPOS>ATOM
      1 C1        -14.1102    0.0743   53.9299 C.3     1  ZINC000373715094    0.0900
      2 N2        -12.9473   -0.5425   53.2868 N.am    1  ZINC000373715094   -0.6100
      3 C3        -11.6708   -0.2850   53.6200 C.2     1  ZINC000373715094    0.5200
      4 O4        -11.3216    0.4903   54.4847 O.2     1  ZINC000373715094   -0.5200
      5 C5        -10.7332   -1.1031   52.7596 C.3     1  ZINC000373715094   -0.1600
      6 C6        -11.6383   -2.1969   52.1469 C.3     1  ZINC000373715094   -0.1000
      7 H7        -11.3463   -2.4144   51.1195 H       1  ZINC000373715094    0.1100
      8 C8        -11.6164   -3.4670   52.9998 C.3     1  ZINC000373715094    0.1300
      9 N9        -11.9559   -3.1311   54.3847 N.am    1  ZINC000373715094   -0.7300
     10 C10       -12.6461   -4.0077   55.1410 C.2     1  ZINC000373715094    0.5200
     11 O11       -12.9848   -5.0751   54.6753 O.2     1  ZINC000373715094   -0.5200
     12 C12       -12.9969   -3.6613   56.5651 C.3     1  ZINC000373715094   -0.0600
     13 C13       -11.8420   -4.0138   57.4667 C.2     1  ZINC000373715094    0.1200
     14 N14       -11.4034   -5.2139   57.7188 N.2     1  ZINC000373715094   -0.2300
     15 N15       -10.3182   -5.1540   58.5992 N.pl3   1  ZINC000373715094   -0.5100
     16 C16       -10.0674   -3.8437   58.9126 C.ar    1  ZINC000373715094    0.1300
     17 C17        -9.1299   -3.2078   59.7223 C.ar    1  ZINC000373715094   -0.1400
     18 C18        -9.1376   -1.8459   59.8310 C.ar    1  ZINC000373715094   -0.0700
     19 C19       -10.0719   -1.0822   59.1427 C.ar    1  ZINC000373715094   -0.1600
     20 C20       -11.0028   -1.6781   58.3418 C.ar    1  ZINC000373715094   -0.0400
     21 C21       -11.0113   -3.0707   58.2086 C.ar    1  ZINC000373715094   -0.1600
     22 C22       -13.0266   -1.5257   52.2000 C.3     1  ZINC000373715094    0.1800
     23 H23       -13.7965   -2.2677   52.4121 H       1  ZINC000373715094    0.1000
     24 C24       -13.3195   -0.8294   50.8960 C.ar    1  ZINC000373715094   -0.1000
     25 C25       -13.0315    0.5147   50.7503 C.ar    1  ZINC000373715094   -0.1000
     26 C26       -13.3001    1.1534   49.5541 C.ar    1  ZINC000373715094   -0.1200
     27 C27       -13.8564    0.4478   48.5036 C.ar    1  ZINC000373715094   -0.1100
     28 C28       -14.1435   -0.8965   48.6490 C.ar    1  ZINC000373715094   -0.1200
     29 C29       -13.8709   -1.5362   49.8436 C.ar    1  ZINC000373715094   -0.1100
     30 H30       -14.4205   -0.5338   54.7797 H       1  ZINC000373715094    0.0600
     31 H31       -13.8465    1.0740   54.2755 H       1  ZINC000373715094    0.0800
     32 H32       -14.9286    0.1417   53.2132 H       1  ZINC000373715094    0.0700
     33 H33       -10.2979   -0.4845   51.9750 H       1  ZINC000373715094    0.1100
     34 H34        -9.9506   -1.5534   53.3701 H       1  ZINC000373715094    0.1100
     35 H35       -12.3438   -4.1790   52.6098 H       1  ZINC000373715094    0.0700
     36 H36       -10.6209   -3.9097   52.9668 H       1  ZINC000373715094    0.0800
     37 H37       -11.6839   -2.2779   54.7575 H       1  ZINC000373715094    0.4000
     38 H38       -13.2030   -2.5936   56.6391 H       1  ZINC000373715094    0.1200
     39 H39       -13.8797   -4.2238   56.8688 H       1  ZINC000373715094    0.1200
     40 H40        -9.8228   -5.9176   58.9345 H       1  ZINC000373715094    0.4400
     41 H41        -8.3985   -3.7898   60.2633 H       1  ZINC000373715094    0.1300
     42 H42        -8.4084   -1.3570   60.4602 H       1  ZINC000373715094    0.1300
     43 H43       -10.0619   -0.0068   59.2426 H       1  ZINC000373715094    0.1300
     44 H44       -11.7259   -1.0774   57.8099 H       1  ZINC000373715094    0.1300
     45 H45       -12.5969    1.0659   51.5711 H       1  ZINC000373715094    0.1200
     46 H46       -13.0758    2.2037   49.4405 H       1  ZINC000373715094    0.1200
     47 H47       -14.0669    0.9471   47.5692 H       1  ZINC000373715094    0.1200
     48 H48       -14.5784   -1.4476   47.8283 H       1  ZINC000373715094    0.1300
     49 H49       -14.0952   -2.5865   49.9573 H       1  ZINC000373715094    0.1300
@<TRIPOS>BOND
     1     1     2    1
     2     1    30    1
     3     1    31    1
     4     1    32    1
     5     2    22    1
     6     2     3   am
     7     3     4    2
     8     3     5    1
     9     5     6    1
    10     5    33    1
    11     5    34    1
    12     6     7    1
    13     6     8    1
    14     6    22    1
    15     8     9    1
    16     8    35    1
    17     8    36    1
    18     9    10   am
    19     9    37    1
    20    10    11    2
    21    10    12    1
    22    12    13    1
    23    12    38    1
    24    12    39    1
    25    13    21    1
    26    13    14    2
    27    14    15    1
    28    15    16    1
    29    15    40    1
    30    16    21   ar
    31    16    17   ar
    32    17    18   ar
    33    17    41    1
    34    18    19   ar
    35    18    42    1
    36    19    20   ar
    37    19    43    1
    38    20    21   ar
    39    20    44    1
    40    22    23    1
    41    22    24    1
    42    24    29   ar
    43    24    25   ar
    44    25    26   ar
    45    25    45    1
    46    26    27   ar
    47    26    46    1
    48    27    28   ar
    49    27    47    1
    50    28    29   ar
    51    28    48    1
    52    29    49    1
@<TRIPOS>SUBSTRUCTURE
     1 ZINC000373715094        1 TEMP              0 ****  ****    0 ROOT


##########                                Name:    ZINC000543625960
##########                DOCK_Rotatable_Bonds:                   8
##########                         Heavy_Atoms:                  29
##########                    Molecular_Weight:             416.544
##########                DOCK_Rotatable_Bonds:                   8
##########                       Formal_Charge:           -0.010001
##########                     HBond_Acceptors:                   8
##########                        HBond_Donors:                   2
##########                         Heavy_Atoms:                  29
##########                          Grid_Score:          -35.565235
##########                     Grid_vdw_energy:          -34.124962
##########                      Grid_es_energy:           -1.440272
##########           Internal_energy_repulsive:           20.056782

@<TRIPOS>MOLECULE
ZINC000543625960
 57 59 1 0 0
SMALL
USER_CHARGES


@<TRIPOS>ATOM
      1 C1        -10.1136    1.6678   57.4657 C.3     1  ZINC000543625960   -0.1500
      2 C2         -9.6465    1.3782   58.8935 C.3     1  ZINC000543625960   -0.1300
      3 C3        -10.7651    1.7286   59.8769 C.3     1  ZINC000543625960    0.1500
      4 H4        -11.6652    1.1716   59.6169 H       1  ZINC000543625960    0.0800
      5 C5        -11.0554    3.2291   59.8056 C.3     1  ZINC000543625960   -0.1700
      6 N6        -10.3484    1.3759   61.2364 N.am    1  ZINC000543625960   -1.1100
      7 S7        -10.8744   -0.0358   61.9237 S.o2    1  ZINC000543625960    2.7000
      8 O8        -10.1861   -0.1608   63.1606 O.2     1  ZINC000543625960   -0.9600
      9 O9        -12.2916   -0.0289   61.8202 O.2     1  ZINC000543625960   -0.9500
     10 C10       -10.3073   -1.3556   60.9032 C.ar    1  ZINC000543625960   -0.6600
     11 C11        -9.1794   -2.0703   61.2619 C.ar    1  ZINC000543625960   -0.0400
     12 C12        -8.7310   -3.1068   60.4636 C.ar    1  ZINC000543625960   -0.1200
     13 C13        -9.4092   -3.4312   59.3052 C.ar    1  ZINC000543625960   -0.0600
     14 C14       -10.5428   -2.7155   58.9424 C.ar    1  ZINC000543625960    0.1500
     15 N15       -11.2323   -3.0417   57.7690 N.am    1  ZINC000543625960   -0.6800
     16 C16       -11.1054   -2.2653   56.6748 C.2     1  ZINC000543625960    0.7200
     17 O17       -10.3918   -1.2813   56.7070 O.2     1  ZINC000543625960   -0.5600
     18 N18       -11.7694   -2.5794   55.5448 N.am    1  ZINC000543625960   -0.6300
     19 C19       -11.7214   -1.8212   54.2813 C.3     1  ZINC000543625960    0.0900
     20 C20       -12.0928   -2.8520   53.1861 C.3     1  ZINC000543625960   -0.1000
     21 H21       -12.5109   -2.3571   52.3095 H       1  ZINC000543625960    0.1000
     22 C22       -10.8826   -3.7068   52.8046 C.3     1  ZINC000543625960   -0.1500
     23 C23       -13.1691   -3.7026   53.9110 C.3     1  ZINC000543625960   -0.1200
     24 C24       -12.6564   -3.7381   55.3660 C.3     1  ZINC000543625960    0.2000
     25 H25       -12.1068   -4.6626   55.5429 H       1  ZINC000543625960    0.0900
     26 C26       -13.8180   -3.6419   56.3213 C.ar    1  ZINC000543625960   -0.1400
     27 C27       -14.6205   -2.5117   56.3391 C.ar    1  ZINC000543625960   -0.0600
     28 C28       -15.6784   -2.4675   57.2346 C.ar    1  ZINC000543625960   -0.1700
     29 C29       -15.8961   -3.5437   58.0734 C.ar    1  ZINC000543625960    0.1000
     30 N30       -15.1118   -4.6031   58.0289 N.ar    1  ZINC000543625960   -0.4800
     31 C31       -14.1001   -4.6820   57.1868 C.ar    1  ZINC000543625960    0.1200
     32 C32       -10.9933   -1.6788   59.7486 C.ar    1  ZINC000543625960   -0.0500
     33 H33        -9.3166    1.4182   56.7652 H       1  ZINC000543625960    0.0600
     34 H34       -10.9950    1.0666   57.2426 H       1  ZINC000543625960    0.0600
     35 H35       -10.3617    2.7251   57.3720 H       1  ZINC000543625960    0.0500
     36 H36        -9.3984    0.3209   58.9872 H       1  ZINC000543625960    0.0700
     37 H37        -8.7651    1.9794   59.1166 H       1  ZINC000543625960    0.0800
     38 H38       -11.3655    3.4915   58.7941 H       1  ZINC000543625960    0.0700
     39 H39       -11.8523    3.4787   60.5062 H       1  ZINC000543625960    0.0700
     40 H40       -10.1553    3.7861   60.0657 H       1  ZINC000543625960    0.0600
     41 H41        -9.7644    1.9695   61.7340 H       1  ZINC000543625960    0.4200
     42 H42        -8.6470   -1.8183   62.1671 H       1  ZINC000543625960    0.1400
     43 H43        -7.8495   -3.6629   60.7463 H       1  ZINC000543625960    0.1400
     44 H44        -9.0583   -4.2403   58.6819 H       1  ZINC000543625960    0.1400
     45 H45       -11.8015   -3.8267   57.7433 H       1  ZINC000543625960    0.4100
     46 H46       -12.4473   -1.0083   54.2989 H       1  ZINC000543625960    0.0700
     47 H47       -10.7179   -1.4314   54.1106 H       1  ZINC000543625960    0.0800
     48 H48       -10.5097   -4.2239   53.6887 H       1  ZINC000543625960    0.0600
     49 H49       -11.1774   -4.4389   52.0527 H       1  ZINC000543625960    0.0600
     50 H50       -10.0985   -3.0666   52.4003 H       1  ZINC000543625960    0.0600
     51 H51       -14.1449   -3.2200   53.8538 H       1  ZINC000543625960    0.0800
     52 H52       -13.2104   -4.7089   53.4944 H       1  ZINC000543625960    0.0900
     53 H53       -14.4262   -1.6851   55.6717 H       1  ZINC000543625960    0.1300
     54 H54       -16.3239   -1.6025   57.2761 H       1  ZINC000543625960    0.1400
     55 H55       -16.7176   -3.5169   58.7739 H       1  ZINC000543625960    0.1600
     56 H56       -13.4796   -5.5660   57.1794 H       1  ZINC000543625960    0.1400
     57 H57       -11.8746   -1.1204   59.4692 H       1  ZINC000543625960    0.1400
@<TRIPOS>BOND
     1     1     2    1
     2     1    33    1
     3     1    34    1
     4     1    35    1
     5     2     3    1
     6     2    36    1
     7     2    37    1
     8     3     4    1
     9     3     5    1
    10     3     6    1
    11     5    38    1
    12     5    39    1
    13     5    40    1
    14     6     7   am
    15     6    41    1
    16     7     8    2
    17     7     9    2
    18     7    10    1
    19    10    32   ar
    20    10    11   ar
    21    11    12   ar
    22    11    42    1
    23    12    13   ar
    24    12    43    1
    25    13    14   ar
    26    13    44    1
    27    14    15    1
    28    14    32   ar
    29    15    16   am
    30    15    45    1
    31    16    17    2
    32    16    18   am
    33    18    24    1
    34    18    19    1
    35    19    20    1
    36    19    46    1
    37    19    47    1
    38    20    21    1
    39    20    22    1
    40    20    23    1
    41    22    48    1
    42    22    49    1
    43    22    50    1
    44    23    24    1
    45    23    51    1
    46    23    52    1
    47    24    25    1
    48    24    26    1
    49    26    31   ar
    50    26    27   ar
    51    27    28   ar
    52    27    53    1
    53    28    29   ar
    54    28    54    1
    55    29    30   ar
    56    29    55    1
    57    30    31   ar
    58    31    56    1
    59    32    57    1
@<TRIPOS>SUBSTRUCTURE
     1 ZINC000543625960        1 TEMP              0 ****  ****    0 ROOT


##########                                Name:    ZINC000609484313
##########                DOCK_Rotatable_Bonds:                  10
##########                         Heavy_Atoms:                  26
##########                    Molecular_Weight:             361.487
##########                DOCK_Rotatable_Bonds:                  10
##########                       Formal_Charge:          -0.0200004
##########                     HBond_Acceptors:                   7
##########                        HBond_Donors:                   1
##########                         Heavy_Atoms:                  26
##########                          Grid_Score:          -35.558800
##########                     Grid_vdw_energy:          -35.326981
##########                      Grid_es_energy:           -0.231819
##########           Internal_energy_repulsive:           29.061047

@<TRIPOS>MOLECULE
ZINC000609484313
 57 58 1 0 0
SMALL
USER_CHARGES


@<TRIPOS>ATOM
      1 C1        -15.6355   -2.9768   53.1955 C.3     1  ZINC000609484313   -0.1500
      2 C2        -15.0253   -1.6131   52.8653 C.3     1  ZINC000609484313   -0.1300
      3 C3        -14.0025   -1.7713   51.7385 C.3     1  ZINC000609484313   -0.1100
      4 C4        -12.8588   -0.7761   51.9445 C.3     1  ZINC000609484313   -0.1100
      5 C5        -11.6201   -1.5196   52.4483 C.3     1  ZINC000609484313    0.0800
      6 H6        -11.5480   -2.4856   51.9486 H       1  ZINC000609484313    0.1200
      7 C7        -10.3884   -0.7051   52.1476 C.2     1  ZINC000609484313    0.4900
      8 O8        -10.4773    0.4944   51.9930 O.2     1  ZINC000609484313   -0.5000
      9 N9         -9.1878   -1.3099   52.0503 N.am    1  ZINC000609484313   -0.6300
     10 C10        -8.0473   -0.5557   51.7736 C.2     1  ZINC000609484313    0.2400
     11 N11        -7.1173   -0.8320   50.8975 N.2     1  ZINC000609484313   -0.3900
     12 O12        -6.2530    0.0136   50.8878 O.3     1  ZINC000609484313    0.1000
     13 C13        -6.4998    0.9865   51.7770 C.2     1  ZINC000609484313   -0.0200
     14 C14        -5.6472    2.2000   52.0438 C.3     1  ZINC000609484313   -0.0800
     15 C15        -7.6667    0.6695   52.3830 C.2     1  ZINC000609484313   -0.2300
     16 N16       -11.7289   -1.7255   53.8988 N.3     1  ZINC000609484313   -0.5000
     17 C17       -10.9701   -0.7043   54.6341 C.3     1  ZINC000609484313    0.0400
     18 C18       -11.1732   -0.9056   56.1376 C.3     1  ZINC000609484313    0.0500
     19 N19       -10.7325   -2.2566   56.5122 N.3     1  ZINC000609484313   -0.5100
     20 C20       -10.8413   -2.4626   57.9626 C.3     1  ZINC000609484313    0.1800
     21 H21       -11.8548   -2.2280   58.2880 H       1  ZINC000609484313    0.1200
     22 C22       -10.5356   -3.8664   58.2832 C.1     1  ZINC000609484313    0.1700
     23 N23       -10.2997   -4.9497   58.5305 N.1     1  ZINC000609484313   -0.4200
     24 C24        -9.8496   -1.5473   58.6835 C.3     1  ZINC000609484313   -0.0800
     25 C25       -10.6148   -0.4481   59.4231 C.3     1  ZINC000609484313   -0.1400
     26 C26        -9.0364   -2.3667   59.6877 C.3     1  ZINC000609484313   -0.1500
     27 C27       -11.4914   -3.2778   55.7769 C.3     1  ZINC000609484313    0.0500
     28 C28       -11.2882   -3.0765   54.2733 C.3     1  ZINC000609484313    0.0400
     29 H29       -16.1292   -3.3777   52.3103 H       1  ZINC000609484313    0.0500
     30 H30       -14.8478   -3.6600   53.5130 H       1  ZINC000609484313    0.0500
     31 H31       -16.3642   -2.8640   53.9982 H       1  ZINC000609484313    0.0500
     32 H32       -15.8130   -0.9299   52.5478 H       1  ZINC000609484313    0.0600
     33 H33       -14.5315   -1.2121   53.7505 H       1  ZINC000609484313    0.0600
     34 H34       -13.6065   -2.7868   51.7472 H       1  ZINC000609484313    0.0800
     35 H35       -14.4846   -1.5774   50.7803 H       1  ZINC000609484313    0.0600
     36 H36       -12.6287   -0.2861   50.9984 H       1  ZINC000609484313    0.0700
     37 H37       -13.1566   -0.0272   52.6784 H       1  ZINC000609484313    0.0800
     38 H38        -9.1168   -2.2695   52.1728 H       1  ZINC000609484313    0.4200
     39 H39        -4.7722    2.1792   51.3942 H       1  ZINC000609484313    0.0800
     40 H40        -6.2263    3.1018   51.8447 H       1  ZINC000609484313    0.0900
     41 H41        -5.3265    2.1968   53.0856 H       1  ZINC000609484313    0.0900
     42 H42        -8.1851    1.2171   53.1560 H       1  ZINC000609484313    0.1900
     43 H43        -9.9106   -0.7960   54.3947 H       1  ZINC000609484313    0.0800
     44 H44       -11.3232    0.2868   54.3489 H       1  ZINC000609484313    0.0800
     45 H45       -10.5880   -0.1672   56.6857 H       1  ZINC000609484313    0.0900
     46 H46       -12.2290   -0.7870   56.3810 H       1  ZINC000609484313    0.0400
     47 H47        -9.1772   -1.0946   57.9548 H       1  ZINC000609484313    0.0800
     48 H48       -11.2872   -0.9009   60.1519 H       1  ZINC000609484313    0.0600
     49 H49        -9.9083    0.2040   59.9367 H       1  ZINC000609484313    0.0500
     50 H50       -11.1941    0.1357   58.7078 H       1  ZINC000609484313    0.0700
     51 H51        -8.3964   -1.7007   60.2664 H       1  ZINC000609484313    0.0700
     52 H52        -9.7136   -2.8942   60.3593 H       1  ZINC000609484313    0.0600
     53 H53        -8.4198   -3.0889   59.1526 H       1  ZINC000609484313    0.0500
     54 H54       -11.1383   -4.2689   56.0620 H       1  ZINC000609484313    0.0900
     55 H55       -12.5508   -3.1862   56.0162 H       1  ZINC000609484313    0.0400
     56 H56       -11.8733   -3.8149   53.7252 H       1  ZINC000609484313    0.0800
     57 H57       -10.2324   -3.1951   54.0300 H       1  ZINC000609484313    0.0800
@<TRIPOS>BOND
     1     1     2    1
     2     1    29    1
     3     1    30    1
     4     1    31    1
     5     2     3    1
     6     2    32    1
     7     2    33    1
     8     3     4    1
     9     3    34    1
    10     3    35    1
    11     4     5    1
    12     4    36    1
    13     4    37    1
    14     5     6    1
    15     5     7    1
    16     5    16    1
    17     7     8    2
    18     7     9   am
    19     9    10    1
    20     9    38    1
    21    10    15    1
    22    10    11    2
    23    11    12    1
    24    12    13    1
    25    13    14    1
    26    13    15    2
    27    14    39    1
    28    14    40    1
    29    14    41    1
    30    15    42    1
    31    16    28    1
    32    16    17    1
    33    17    18    1
    34    17    43    1
    35    17    44    1
    36    18    19    1
    37    18    45    1
    38    18    46    1
    39    19    20    1
    40    19    27    1
    41    20    21    1
    42    20    22    1
    43    20    24    1
    44    22    23    3
    45    24    25    1
    46    24    26    1
    47    24    47    1
    48    25    48    1
    49    25    49    1
    50    25    50    1
    51    26    51    1
    52    26    52    1
    53    26    53    1
    54    27    28    1
    55    27    54    1
    56    27    55    1
    57    28    56    1
    58    28    57    1
@<TRIPOS>SUBSTRUCTURE
     1 ZINC000609484313        1 TEMP              0 ****  ****    0 ROOT


##########                                Name:    ZINC000011972961
##########                DOCK_Rotatable_Bonds:                   6
##########                         Heavy_Atoms:                  28
##########                    Molecular_Weight:             397.501
##########                DOCK_Rotatable_Bonds:                   6
##########                       Formal_Charge:                   0
##########                     HBond_Acceptors:                   8
##########                        HBond_Donors:                   1
##########                         Heavy_Atoms:                  28
##########                          Grid_Score:          -35.548595
##########                     Grid_vdw_energy:          -35.548595
##########                      Grid_es_energy:            0.000000
##########           Internal_energy_repulsive:           21.355261

@<TRIPOS>MOLECULE
ZINC000011972961
 51 54 1 0 0
SMALL
USER_CHARGES


@<TRIPOS>ATOM
      1 C1        -11.0859   -3.2153   54.7715 C.3        ^{      0.0000
      2 C2        -12.4506   -3.5997   55.2821 C.2        ^{      0.0000
      3 C3        -12.6469   -4.0480   56.5285 C.2        ^{      0.0000
      4 C4        -11.5883   -4.2184   57.5311 C.2        ^{      0.0000
      5 O5        -10.9494   -5.2532   57.5715 O.2        ^{      0.0000
      6 N6        -11.3240   -3.2287   58.4069 N.am       ^{      0.0000
      7 C7        -12.0932   -1.9827   58.3582 C.3        ^{      0.0000
      8 C8        -10.2675   -3.3986   59.4075 C.3        ^{      0.0000
      9 H9         -9.9567   -4.4421   59.4593 H          ^{      0.0000
     10 C10        -9.0587   -2.4888   59.0791 C.3        ^{      0.0000
     11 C11        -9.3109   -1.2686   60.0010 C.3        ^{      0.0000
     12 O12        -9.8533   -1.8598   61.2014 O.3        ^{      0.0000
     13 C13       -10.7481   -2.9099   60.7876 C.3        ^{      0.0000
     14 S14       -14.3446   -4.4032   56.7985 S.3        ^{      0.0000
     15 C15       -14.7576   -3.9184   55.1594 C.ar       ^{      0.0000
     16 N16       -15.9308   -3.8858   54.5171 N.ar       ^{      0.0000
     17 C17       -16.0101   -3.4800   53.2705 C.ar       ^{      0.0000
     18 N18       -14.9492   -3.0865   52.5896 N.ar       ^{      0.0000
     19 C19       -13.7432   -3.0822   53.1368 C.ar       ^{      0.0000
     20 N20       -12.6454   -2.6676   52.4105 N.pl3      ^{      0.0000
     21 C21       -12.5648   -1.2865   51.9286 C.3        ^{      0.0000
     22 C22       -11.2917   -0.6536   52.4280 C.ar       ^{      0.0000
     23 N23       -10.1357   -1.0171   51.9082 N.ar       ^{      0.0000
     24 C24        -8.9967   -0.4902   52.3135 C.ar       ^{      0.0000
     25 C25        -7.7027   -0.9408   51.6863 C.3        ^{      0.0000
     26 C26        -8.9761    0.4706   53.3065 C.ar       ^{      0.0000
     27 C27       -10.1723    0.8783   53.8772 C.ar       ^{      0.0000
     28 C28       -11.3497    0.3054   53.4218 C.ar       ^{      0.0000
     29 C29       -13.5982   -3.5067   54.4878 C.ar       ^{      0.0000
     30 H30       -11.0456   -2.1367   54.6190 H          ^{      0.0000
     31 H31       -10.3297   -3.5077   55.5000 H          ^{      0.0000
     32 H32       -10.8952   -3.7232   53.8261 H          ^{      0.0000
     33 H33       -13.1323   -2.1870   58.6158 H          ^{      0.0000
     34 H34       -11.6757   -1.2700   59.0695 H          ^{      0.0000
     35 H35       -12.0436   -1.5641   57.3529 H          ^{      0.0000
     36 H36        -8.1204   -2.9816   59.3340 H          ^{      0.0000
     37 H37        -9.0685   -2.1924   58.0302 H          ^{      0.0000
     38 H38        -8.3763   -0.7509   60.2166 H          ^{      0.0000
     39 H39       -10.0323   -0.5882   59.5485 H          ^{      0.0000
     40 H40       -11.7638   -2.5222   60.7101 H          ^{      0.0000
     41 H41       -10.7157   -3.7290   61.5061 H          ^{      0.0000
     42 H42       -16.9751   -3.4683   52.7859 H          ^{      0.0000
     43 H43       -11.9270   -3.2907   52.2191 H          ^{      0.0000
     44 H44       -12.5701   -1.2810   50.8386 H          ^{      0.0000
     45 H45       -13.4207   -0.7220   52.2988 H          ^{      0.0000
     46 H46        -7.4786   -0.3125   50.8243 H          ^{      0.0000
     47 H47        -6.8970   -0.8577   52.4157 H          ^{      0.0000
     48 H48        -7.7965   -1.9782   51.3651 H          ^{      0.0000
     49 H49        -8.0401    0.8983   53.6342 H          ^{      0.0000
     50 H50       -10.1867    1.6274   54.6552 H          ^{      0.0000
     51 H51       -12.2996    0.5993   53.8433 H          ^{      0.0000
@<TRIPOS>BOND
     1     1     2    1
     2     1    30    1
     3     1    31    1
     4     1    32    1
     5     2    29    1
     6     2     3    2
     7     3     4    1
     8     3    14    1
     9     4     5    2
    10     4     6   am
    11     6     7    1
    12     6     8    1
    13     7    33    1
    14     7    34    1
    15     7    35    1
    16     8     9    1
    17     8    13    1
    18     8    10    1
    19    10    11    1
    20    10    36    1
    21    10    37    1
    22    11    12    1
    23    11    38    1
    24    11    39    1
    25    12    13    1
    26    13    40    1
    27    13    41    1
    28    14    15    1
    29    15    29   ar
    30    15    16   ar
    31    16    17   ar
    32    17    18   ar
    33    17    42    1
    34    18    19   ar
    35    19    20    1
    36    19    29   ar
    37    20    21    1
    38    20    43    1
    39    21    22    1
    40    21    44    1
    41    21    45    1
    42    22    28   ar
    43    22    23   ar
    44    23    24   ar
    45    24    25    1
    46    24    26   ar
    47    25    46    1
    48    25    47    1
    49    25    48    1
    50    26    27   ar
    51    26    49    1
    52    27    28   ar
    53    27    50    1
    54    28    51    1
@<TRIPOS>SUBSTRUCTURE
     1 ^{        1 TEMP              0 ****  ****    0 ROOT


##########                                Name:    ZINC001342629575
##########                DOCK_Rotatable_Bonds:                   9
##########                         Heavy_Atoms:                  29
##########                    Molecular_Weight:             396.533
##########                DOCK_Rotatable_Bonds:                   9
##########                       Formal_Charge:         -0.00999976
##########                     HBond_Acceptors:                   6
##########                        HBond_Donors:                   0
##########                         Heavy_Atoms:                  29
##########                          Grid_Score:          -35.538651
##########                     Grid_vdw_energy:          -35.253063
##########                      Grid_es_energy:           -0.285588
##########           Internal_energy_repulsive:           18.053513

@<TRIPOS>MOLECULE
ZINC001342629575
 61 64 1 0 0
SMALL
USER_CHARGES


@<TRIPOS>ATOM
      1 C1         -8.4483    1.8125   56.0586 C.2     1  ZINC001342629575   -0.1800
      2 C2         -9.3249    1.0786   56.6982 C.2     1  ZINC001342629575   -0.1600
      3 C3         -8.9923    0.5219   58.0585 C.3     1  ZINC001342629575   -0.0800
      4 C4        -10.2785    0.0697   58.7528 C.3     1  ZINC001342629575    0.0500
      5 H5        -11.0489    0.8295   58.6212 H       1  ZINC001342629575    0.0900
      6 C6        -10.7456   -1.2294   58.1485 C.2     1  ZINC001342629575    0.2000
      7 N7         -9.9955   -2.2444   57.8250 N.2     1  ZINC001342629575   -0.2700
      8 N8        -10.7179   -3.1879   57.3350 N.2     1  ZINC001342629575   -0.3000
      9 C9        -11.9780   -2.8222   57.3194 C.2     1  ZINC001342629575    0.3400
     10 N10       -13.0485   -3.5745   56.8626 N.3     1  ZINC001342629575   -0.4300
     11 C11       -13.1548   -4.8558   57.6070 C.3     1  ZINC001342629575    0.0400
     12 C12       -13.9802   -5.7757   56.6819 C.3     1  ZINC001342629575   -0.1200
     13 C13       -13.7759   -5.2052   55.2634 C.3     1  ZINC001342629575   -0.1200
     14 C14       -12.8442   -3.9886   55.4506 C.3     1  ZINC001342629575    0.0700
     15 H15       -11.8059   -4.2759   55.2851 H       1  ZINC001342629575    0.0900
     16 C16       -13.2427   -2.8597   54.4979 C.3     1  ZINC001342629575    0.1000
     17 H17       -14.2319   -2.4853   54.7616 H       1  ZINC001342629575    0.0700
     18 C18       -13.2497   -3.3790   53.0442 C.3     1  ZINC001342629575   -0.1400
     19 C19       -12.6545   -2.1768   52.2617 C.3     1  ZINC001342629575   -0.1600
     20 C20       -11.6462   -1.6210   53.2988 C.3     1  ZINC001342629575    0.0500
     21 O21       -12.2848   -1.7976   54.5755 O.3     1  ZINC001342629575   -0.3700
     22 N22       -12.0360   -1.5636   57.8434 N.pl3   1  ZINC001342629575   -0.4600
     23 C23       -13.2314   -0.7378   58.0309 C.3     1  ZINC001342629575    0.1100
     24 C24       -13.6115   -0.7199   59.5128 C.3     1  ZINC001342629575    0.0500
     25 O25       -13.9516   -2.0425   59.9334 O.3     1  ZINC001342629575   -0.3800
     26 C26       -15.2924   -2.4252   59.6207 C.3     1  ZINC001342629575    0.0300
     27 C27       -10.0132   -0.1270   60.2232 C.ar    1  ZINC001342629575   -0.0900
     28 C28       -10.5837    0.7267   61.1488 C.ar    1  ZINC001342629575   -0.0900
     29 C29       -10.3404    0.5462   62.4975 C.ar    1  ZINC001342629575   -0.1200
     30 C30        -9.5269   -0.4882   62.9208 C.ar    1  ZINC001342629575   -0.1200
     31 C31        -8.9571   -1.3425   61.9953 C.ar    1  ZINC001342629575   -0.1200
     32 C32        -9.2040   -1.1646   60.6468 C.ar    1  ZINC001342629575   -0.1100
     33 H33        -8.6866    2.2115   55.0837 H       1  ZINC001342629575    0.1000
     34 H34        -7.4890    2.0224   56.5081 H       1  ZINC001342629575    0.1000
     35 H35       -10.2859    0.8725   56.2506 H       1  ZINC001342629575    0.1000
     36 H36        -8.3204   -0.3293   57.9484 H       1  ZINC001342629575    0.0900
     37 H37        -8.5074    1.2924   58.6578 H       1  ZINC001342629575    0.0800
     38 H38       -12.1651   -5.2788   57.7789 H       1  ZINC001342629575    0.0600
     39 H39       -13.6738   -4.7037   58.5533 H       1  ZINC001342629575    0.0800
     40 H40       -13.6083   -6.7988   56.7357 H       1  ZINC001342629575    0.0800
     41 H41       -15.0346   -5.7405   56.9558 H       1  ZINC001342629575    0.0800
     42 H42       -13.3037   -5.9483   54.6208 H       1  ZINC001342629575    0.0800
     43 H43       -14.7300   -4.8900   54.8410 H       1  ZINC001342629575    0.0800
     44 H44       -12.6152   -4.2596   52.9438 H       1  ZINC001342629575    0.0900
     45 H45       -14.2662   -3.5922   52.7132 H       1  ZINC001342629575    0.0800
     46 H46       -12.1446   -2.5100   51.3577 H       1  ZINC001342629575    0.0800
     47 H47       -13.4236   -1.4406   52.0280 H       1  ZINC001342629575    0.0800
     48 H48       -10.7142   -2.1849   53.2601 H       1  ZINC001342629575    0.0600
     49 H49       -11.4576   -0.5636   53.1141 H       1  ZINC001342629575    0.0900
     50 H50       -13.0268    0.2790   57.6959 H       1  ZINC001342629575    0.1000
     51 H51       -14.0547   -1.1531   57.4496 H       1  ZINC001342629575    0.1100
     52 H52       -12.7676   -0.3576   60.1000 H       1  ZINC001342629575    0.0600
     53 H53       -14.4668   -0.0604   59.6606 H       1  ZINC001342629575    0.0600
     54 H54       -15.4717   -3.4412   59.9723 H       1  ZINC001342629575    0.0900
     55 H55       -15.9883   -1.7434   60.1094 H       1  ZINC001342629575    0.0400
     56 H56       -15.4399   -2.3830   58.5415 H       1  ZINC001342629575    0.0400
     57 H57       -11.2192    1.5348   60.8181 H       1  ZINC001342629575    0.1300
     58 H58       -10.7856    1.2136   63.2205 H       1  ZINC001342629575    0.1200
     59 H59        -9.3362   -0.6288   63.9744 H       1  ZINC001342629575    0.1200
     60 H60        -8.3214   -2.1504   62.3259 H       1  ZINC001342629575    0.1200
     61 H61        -8.7588   -1.8321   59.9238 H       1  ZINC001342629575    0.1200
@<TRIPOS>BOND
     1     1     2    2
     2     1    33    1
     3     1    34    1
     4     2     3    1
     5     2    35    1
     6     3     4    1
     7     3    36    1
     8     3    37    1
     9     4     5    1
    10     4     6    1
    11     4    27    1
    12     6    22    1
    13     6     7    2
    14     7     8    1
    15     8     9    2
    16     9    10    1
    17     9    22    1
    18    10    14    1
    19    10    11    1
    20    11    12    1
    21    11    38    1
    22    11    39    1
    23    12    13    1
    24    12    40    1
    25    12    41    1
    26    13    14    1
    27    13    42    1
    28    13    43    1
    29    14    15    1
    30    14    16    1
    31    16    17    1
    32    16    21    1
    33    16    18    1
    34    18    19    1
    35    18    44    1
    36    18    45    1
    37    19    20    1
    38    19    46    1
    39    19    47    1
    40    20    21    1
    41    20    48    1
    42    20    49    1
    43    22    23    1
    44    23    24    1
    45    23    50    1
    46    23    51    1
    47    24    25    1
    48    24    52    1
    49    24    53    1
    50    25    26    1
    51    26    54    1
    52    26    55    1
    53    26    56    1
    54    27    32   ar
    55    27    28   ar
    56    28    29   ar
    57    28    57    1
    58    29    30   ar
    59    29    58    1
    60    30    31   ar
    61    30    59    1
    62    31    32   ar
    63    31    60    1
    64    32    61    1
@<TRIPOS>SUBSTRUCTURE
     1 ZINC001342629575        1 TEMP              0 ****  ****    0 ROOT


##########                                Name:    ZINC001041713551
##########                DOCK_Rotatable_Bonds:                  10
##########                         Heavy_Atoms:                  22
##########                    Molecular_Weight:             330.448
##########                DOCK_Rotatable_Bonds:                  10
##########                       Formal_Charge:          -0.0100006
##########                     HBond_Acceptors:                   7
##########                        HBond_Donors:                   2
##########                         Heavy_Atoms:                  22
##########                          Grid_Score:          -35.538250
##########                     Grid_vdw_energy:          -33.441349
##########                      Grid_es_energy:           -2.096900
##########           Internal_energy_repulsive:            3.973894

@<TRIPOS>MOLECULE
ZINC001041713551
 48 49 1 0 0
SMALL
USER_CHARGES


@<TRIPOS>ATOM
      1 C1        -15.0864   -0.8089   63.9856 C.3     1  ZINC001041713551   -0.1500
      2 C2        -14.5116    0.0889   62.8880 C.3     1  ZINC001041713551   -0.1100
      3 C3        -13.0501    0.4109   63.2058 C.3     1  ZINC001041713551   -0.1000
      4 S4        -12.3708    1.4814   61.9085 S.3     1  ZINC001041713551   -0.1800
      5 C5        -10.6768    1.7898   62.4793 C.3     1  ZINC001041713551   -0.1300
      6 C6         -9.9033    0.4964   62.4788 C.2     1  ZINC001041713551    0.5300
      7 O7         -9.1442    0.2435   63.3902 O.2     1  ZINC001041713551   -0.5100
      8 N8        -10.0551   -0.3792   61.4655 N.am    1  ZINC001041713551   -0.7300
      9 C9         -9.3043   -1.6373   61.4659 C.3     1  ZINC001041713551    0.1000
     10 C10        -9.3217   -2.2419   60.0606 C.3     1  ZINC001041713551    0.0900
     11 O11        -8.3469   -1.6611   59.1920 O.3     1  ZINC001041713551   -0.5200
     12 C12        -9.3275   -3.7813   60.0483 C.3     1  ZINC001041713551    0.0900
     13 N13       -10.3249   -3.6690   58.9664 N.am    1  ZINC001041713551   -0.6400
     14 C14       -10.7120   -4.4674   57.9519 C.2     1  ZINC001041713551    0.5500
     15 O15       -10.1883   -5.5505   57.7989 O.2     1  ZINC001041713551   -0.5100
     16 C16       -11.7955   -4.0142   57.0076 C.3     1  ZINC001041713551    0.0800
     17 H17       -12.1034   -3.0013   57.2669 H       1  ZINC001041713551    0.0800
     18 C18       -12.9965   -4.9570   57.1184 C.3     1  ZINC001041713551   -0.1500
     19 C19       -14.0688   -4.5257   56.1132 C.3     1  ZINC001041713551   -0.1200
     20 C20       -13.4619   -4.5202   54.7068 C.3     1  ZINC001041713551   -0.1600
     21 C21       -12.2429   -3.5943   54.6891 C.3     1  ZINC001041713551    0.0600
     22 O22       -11.2986   -4.0330   55.6679 O.3     1  ZINC001041713551   -0.3600
     23 C23       -10.7285   -2.3314   59.4417 C.3     1  ZINC001041713551    0.1200
     24 H24       -15.0281   -0.2934   64.9442 H       1  ZINC001041713551    0.0600
     25 H25       -16.1276   -1.0383   63.7591 H       1  ZINC001041713551    0.0600
     26 H26       -14.5130   -1.7345   64.0353 H       1  ZINC001041713551    0.0600
     27 H27       -14.5699   -0.4266   61.9294 H       1  ZINC001041713551    0.0700
     28 H28       -15.0851    1.0145   62.8383 H       1  ZINC001041713551    0.0700
     29 H29       -12.9913    0.9223   64.1666 H       1  ZINC001041713551    0.0800
     30 H30       -12.4757   -0.5144   63.2510 H       1  ZINC001041713551    0.0800
     31 H31       -10.1928    2.5028   61.8118 H       1  ZINC001041713551    0.1100
     32 H32       -10.7025    2.1975   63.4898 H       1  ZINC001041713551    0.1100
     33 H33       -10.6612   -0.1763   60.7359 H       1  ZINC001041713551    0.4000
     34 H34        -8.2743   -1.4455   61.7663 H       1  ZINC001041713551    0.0900
     35 H35        -9.7636   -2.3341   62.1670 H       1  ZINC001041713551    0.0900
     36 H36        -7.4526   -1.6448   59.5596 H       1  ZINC001041713551    0.3800
     37 H37        -8.3823   -4.2217   59.7305 H       1  ZINC001041713551    0.0900
     38 H38        -9.7194   -4.2266   60.9627 H       1  ZINC001041713551    0.1000
     39 H39       -12.6806   -5.9769   56.8988 H       1  ZINC001041713551    0.0800
     40 H40       -13.4042   -4.9105   58.1283 H       1  ZINC001041713551    0.0800
     41 H41       -14.9035   -5.2259   56.1474 H       1  ZINC001041713551    0.0700
     42 H42       -14.4206   -3.5246   56.3623 H       1  ZINC001041713551    0.0700
     43 H43       -13.1553   -5.5312   54.4384 H       1  ZINC001041713551    0.0700
     44 H44       -14.2024   -4.1614   53.9919 H       1  ZINC001041713551    0.0800
     45 H45       -11.7815   -3.6196   53.7019 H       1  ZINC001041713551    0.1000
     46 H46       -12.5567   -2.5758   54.9179 H       1  ZINC001041713551    0.0500
     47 H47       -11.5319   -2.3506   60.1780 H       1  ZINC001041713551    0.1100
     48 H48       -10.9019   -1.6139   58.6396 H       1  ZINC001041713551    0.1000
@<TRIPOS>BOND
     1     1     2    1
     2     1    24    1
     3     1    25    1
     4     1    26    1
     5     2     3    1
     6     2    27    1
     7     2    28    1
     8     3     4    1
     9     3    29    1
    10     3    30    1
    11     4     5    1
    12     5     6    1
    13     5    31    1
    14     5    32    1
    15     6     7    2
    16     6     8   am
    17     8     9    1
    18     8    33    1
    19     9    10    1
    20     9    34    1
    21     9    35    1
    22    10    23    1
    23    10    11    1
    24    10    12    1
    25    11    36    1
    26    12    13    1
    27    12    37    1
    28    12    38    1
    29    13    14   am
    30    13    23    1
    31    14    15    2
    32    14    16    1
    33    16    17    1
    34    16    22    1
    35    16    18    1
    36    18    19    1
    37    18    39    1
    38    18    40    1
    39    19    20    1
    40    19    41    1
    41    19    42    1
    42    20    21    1
    43    20    43    1
    44    20    44    1
    45    21    22    1
    46    21    45    1
    47    21    46    1
    48    23    47    1
    49    23    48    1
@<TRIPOS>SUBSTRUCTURE
     1 ZINC001041713551        1 TEMP              0 ****  ****    0 ROOT


##########                                Name:    ZINC001077846158
##########                DOCK_Rotatable_Bonds:                   7
##########                         Heavy_Atoms:                  24
##########                    Molecular_Weight:             350.442
##########                DOCK_Rotatable_Bonds:                   7
##########                       Formal_Charge:          -0.0600002
##########                     HBond_Acceptors:                   8
##########                        HBond_Donors:                   2
##########                         Heavy_Atoms:                  24
##########                          Grid_Score:          -35.523510
##########                     Grid_vdw_energy:          -34.704914
##########                      Grid_es_energy:           -0.818597
##########           Internal_energy_repulsive:            6.863909

@<TRIPOS>MOLECULE
ZINC001077846158
 46 48 1 0 0
SMALL
USER_CHARGES


@<TRIPOS>ATOM
      1 C1        -13.5733   -0.8610   52.5694 C.3     1  ZINC001077846158   -0.0700
      2 C2        -12.2100   -1.5011   52.6230 C.2     1  ZINC001077846158    0.0100
      3 C3        -11.9313   -2.7361   53.0720 C.2     1  ZINC001077846158   -0.0500
      4 C4        -12.9200   -3.7361   53.6135 C.3     1  ZINC001077846158    0.1300
      5 N5        -13.1533   -3.4711   55.0394 N.3     1  ZINC001077846158   -0.5100
      6 C6        -14.1946   -4.3785   55.5860 C.3     1  ZINC001077846158    0.0000
      7 C7        -13.9340   -4.3382   57.1128 C.3     1  ZINC001077846158    0.1000
      8 H8        -14.3795   -3.4481   57.5569 H       1  ZINC001077846158    0.0800
      9 O9        -14.4339   -5.5195   57.7424 O.3     1  ZINC001077846158   -0.5600
     10 C10       -12.3915   -4.2788   57.1987 C.3     1  ZINC001077846158    0.1400
     11 H11       -11.9831   -5.2758   57.3635 H       1  ZINC001077846158    0.1100
     12 N12       -11.9766   -3.3758   58.2751 N.am    1  ZINC001077846158   -0.7000
     13 C13       -10.7865   -3.5533   58.8823 C.2     1  ZINC001077846158    0.6000
     14 O14       -10.0575   -4.4638   58.5374 O.2     1  ZINC001077846158   -0.5300
     15 C15       -10.3686   -2.6445   59.9631 C.2     1  ZINC001077846158    0.0100
     16 C16        -9.1845   -2.7560   60.6063 C.2     1  ZINC001077846158   -0.2300
     17 S17        -9.0778   -1.5214   61.7837 S.3     1  ZINC001077846158    0.2300
     18 C18       -10.6191   -0.9278   61.3498 C.2     1  ZINC001077846158    0.0300
     19 C19       -11.2941    0.2574   61.9908 C.3     1  ZINC001077846158   -0.0200
     20 C20       -10.2356    1.1807   62.5973 C.3     1  ZINC001077846158   -0.1500
     21 C21       -12.0932    1.0225   60.9339 C.3     1  ZINC001077846158   -0.1500
     22 N22       -11.1215   -1.6296   60.3958 N.2     1  ZINC001077846158   -0.4500
     23 C23       -11.9334   -3.7327   55.8337 C.3     1  ZINC001077846158    0.0300
     24 O24       -10.6013   -2.9126   52.9467 O.3     1  ZINC001077846158   -0.2100
     25 C25       -10.0874   -1.7904   52.4260 C.2     1  ZINC001077846158    0.1800
     26 N26       -11.0542   -0.9410   52.2247 N.2     1  ZINC001077846158   -0.4900
     27 H27       -14.0431   -1.0863   51.6120 H       1  ZINC001077846158    0.0800
     28 H28       -14.1906   -1.2524   53.3780 H       1  ZINC001077846158    0.0700
     29 H29       -13.4723    0.2188   52.6794 H       1  ZINC001077846158    0.0700
     30 H30       -13.8603   -3.6488   53.0691 H       1  ZINC001077846158    0.0600
     31 H31       -12.5217   -4.7434   53.4915 H       1  ZINC001077846158    0.1100
     32 H32       -15.1915   -4.0027   55.3559 H       1  ZINC001077846158    0.0900
     33 H33       -14.0649   -5.3895   55.2001 H       1  ZINC001077846158    0.0600
     34 H34       -14.8169   -6.1606   57.1281 H       1  ZINC001077846158    0.3900
     35 H35       -12.5584   -2.6504   58.5509 H       1  ZINC001077846158    0.4100
     36 H36        -8.4298   -3.5028   60.4085 H       1  ZINC001077846158    0.1900
     37 H37       -11.9672   -0.0884   62.7754 H       1  ZINC001077846158    0.1000
     38 H38        -9.6663    0.6357   63.3502 H       1  ZINC001077846158    0.0600
     39 H39        -9.5624    1.5264   61.8127 H       1  ZINC001077846158    0.0600
     40 H40       -10.7238    2.0379   63.0609 H       1  ZINC001077846158    0.0700
     41 H41       -12.8472    0.3647   60.5019 H       1  ZINC001077846158    0.0600
     42 H42       -12.5813    1.8797   61.3976 H       1  ZINC001077846158    0.0700
     43 H43       -11.4200    1.3682   60.1493 H       1  ZINC001077846158    0.0600
     44 H44       -11.3121   -4.4715   55.3276 H       1  ZINC001077846158    0.0600
     45 H45       -11.3752   -2.8068   55.9726 H       1  ZINC001077846158    0.0900
     46 H46        -9.0440   -1.6196   52.2054 H       1  ZINC001077846158    0.2500
@<TRIPOS>BOND
     1     1     2    1
     2     1    27    1
     3     1    28    1
     4     1    29    1
     5     2    26    1
     6     2     3    2
     7     3     4    1
     8     3    24    1
     9     4     5    1
    10     4    30    1
    11     4    31    1
    12     5    23    1
    13     5     6    1
    14     6     7    1
    15     6    32    1
    16     6    33    1
    17     7     8    1
    18     7     9    1
    19     7    10    1
    20     9    34    1
    21    10    11    1
    22    10    12    1
    23    10    23    1
    24    12    13   am
    25    12    35    1
    26    13    14    2
    27    13    15    1
    28    15    22    1
    29    15    16    2
    30    16    17    1
    31    16    36    1
    32    17    18    1
    33    18    19    1
    34    18    22    2
    35    19    20    1
    36    19    21    1
    37    19    37    1
    38    20    38    1
    39    20    39    1
    40    20    40    1
    41    21    41    1
    42    21    42    1
    43    21    43    1
    44    23    44    1
    45    23    45    1
    46    24    25    1
    47    25    26    2
    48    25    46    1
@<TRIPOS>SUBSTRUCTURE
     1 ZINC001077846158        1 TEMP              0 ****  ****    0 ROOT


##########                                Name:    ZINC000190927708
##########                DOCK_Rotatable_Bonds:                  10
##########                         Heavy_Atoms:                  26
##########                    Molecular_Weight:             358.437
##########                DOCK_Rotatable_Bonds:                  10
##########                       Formal_Charge:           0.0499998
##########                     HBond_Acceptors:                   6
##########                        HBond_Donors:                   1
##########                         Heavy_Atoms:                  26
##########                          Grid_Score:          -35.511940
##########                     Grid_vdw_energy:          -34.065994
##########                      Grid_es_energy:           -1.445946
##########           Internal_energy_repulsive:           25.989851

@<TRIPOS>MOLECULE
ZINC000190927708
 52 53 1 0 0
SMALL
USER_CHARGES


@<TRIPOS>ATOM
      1 C1        -10.5982   -2.1410   52.3278 C.3     1  ZINC000190927708   -0.1500
      2 C2        -11.1779   -1.9681   53.7332 C.3     1  ZINC000190927708   -0.1500
      3 C3        -11.2751   -3.3336   54.4163 C.3     1  ZINC000190927708    0.1000
      4 N4        -12.0497   -3.2068   55.6533 N.am    1  ZINC000190927708   -0.5900
      5 C5        -11.4569   -2.7548   56.7762 C.2     1  ZINC000190927708    0.5300
      6 O6        -10.2821   -2.4545   56.7630 O.2     1  ZINC000190927708   -0.5300
      7 C7        -12.2542   -2.6227   58.0482 C.3     1  ZINC000190927708   -0.0800
      8 C8        -11.3230   -2.3318   59.1968 C.2     1  ZINC000190927708   -0.1700
      9 C9        -11.3674   -1.1248   59.8132 C.2     1  ZINC000190927708    0.0000
     10 C10       -10.4498   -0.8739   60.9262 C.ar    1  ZINC000190927708   -0.1300
     11 C11       -10.4494    0.3507   61.6015 C.ar    1  ZINC000190927708   -0.0500
     12 C12        -9.5810    0.5529   62.6369 C.ar    1  ZINC000190927708   -0.1500
     13 C13        -8.6991   -0.4462   63.0244 C.ar    1  ZINC000190927708   -0.0600
     14 C14        -8.6816   -1.6608   62.3729 C.ar    1  ZINC000190927708   -0.1600
     15 C15        -9.5566   -1.8898   61.3165 C.ar    1  ZINC000190927708    0.1900
     16 N16        -9.5612   -3.0953   60.6475 N.am    1  ZINC000190927708   -0.6300
     17 C17       -10.4120   -3.3186   59.6306 C.2     1  ZINC000190927708    0.5500
     18 O18       -10.3881   -4.3963   59.0617 O.2     1  ZINC000190927708   -0.5300
     19 C19       -13.4685   -3.5714   55.6698 C.3     1  ZINC000190927708    0.1500
     20 H20       -13.9065   -3.2836   56.6256 H       1  ZINC000190927708    0.1400
     21 C21       -13.6090   -5.0828   55.4789 C.3     1  ZINC000190927708   -0.1300
     22 C22       -13.5017   -5.7806   56.8363 C.3     1  ZINC000190927708   -0.1500
     23 C23       -14.1841   -2.8553   54.5534 C.2     1  ZINC000190927708    0.4500
     24 O24       -14.7653   -1.8194   54.7750 O.2     1  ZINC000190927708   -0.5000
     25 O25       -14.1758   -3.3682   53.3131 O.3     1  ZINC000190927708   -0.3500
     26 C26       -15.1025   -2.7920   52.3552 C.3     1  ZINC000190927708    0.0600
     27 C27       -14.5113   -1.5004   51.7871 C.3     1  ZINC000190927708   -0.1500
     28 H28       -11.2479   -2.7936   51.7446 H       1  ZINC000190927708    0.0600
     29 H29       -10.5290   -1.1682   51.8412 H       1  ZINC000190927708    0.0600
     30 H30        -9.6049   -2.5844   52.3965 H       1  ZINC000190927708    0.0600
     31 H31       -10.5281   -1.3155   54.3164 H       1  ZINC000190927708    0.0800
     32 H32       -12.1712   -1.5247   53.6645 H       1  ZINC000190927708    0.0700
     33 H33       -11.7693   -4.0395   53.7488 H       1  ZINC000190927708    0.0900
     34 H34       -10.2737   -3.6950   54.6503 H       1  ZINC000190927708    0.0900
     35 H35       -12.9701   -1.8072   57.9453 H       1  ZINC000190927708    0.1100
     36 H36       -12.7886   -3.5531   58.2403 H       1  ZINC000190927708    0.1200
     37 H37       -12.0639   -0.3654   59.4902 H       1  ZINC000190927708    0.1400
     38 H38       -11.1324    1.1333   61.3058 H       1  ZINC000190927708    0.1400
     39 H39        -9.5807    1.4990   63.1580 H       1  ZINC000190927708    0.1300
     40 H40        -8.0191   -0.2700   63.8449 H       1  ZINC000190927708    0.1300
     41 H41        -7.9915   -2.4319   62.6821 H       1  ZINC000190927708    0.1300
     42 H42        -8.9445   -3.7939   60.9170 H       1  ZINC000190927708    0.4200
     43 H43       -14.5783   -5.3041   55.0321 H       1  ZINC000190927708    0.0900
     44 H44       -12.8161   -5.4414   54.8224 H       1  ZINC000190927708    0.0800
     45 H45       -13.6018   -6.8574   56.7002 H       1  ZINC000190927708    0.0600
     46 H46       -12.5325   -5.5593   57.2830 H       1  ZINC000190927708    0.0600
     47 H47       -14.2946   -5.4220   57.4927 H       1  ZINC000190927708    0.0600
     48 H48       -15.2742   -3.5003   51.5446 H       1  ZINC000190927708    0.0700
     49 H49       -16.0476   -2.5716   52.8514 H       1  ZINC000190927708    0.0700
     50 H50       -14.3396   -0.7920   52.5976 H       1  ZINC000190927708    0.0700
     51 H51       -13.5661   -1.7207   51.2909 H       1  ZINC000190927708    0.0700
     52 H52       -15.2070   -1.0678   51.0680 H       1  ZINC000190927708    0.0800
@<TRIPOS>BOND
     1     1     2    1
     2     1    28    1
     3     1    29    1
     4     1    30    1
     5     2     3    1
     6     2    31    1
     7     2    32    1
     8     3     4    1
     9     3    33    1
    10     3    34    1
    11     4     5   am
    12     4    19    1
    13     5     6    2
    14     5     7    1
    15     7     8    1
    16     7    35    1
    17     7    36    1
    18     8    17    1
    19     8     9    2
    20     9    10    1
    21     9    37    1
    22    10    15   ar
    23    10    11   ar
    24    11    12   ar
    25    11    38    1
    26    12    13   ar
    27    12    39    1
    28    13    14   ar
    29    13    40    1
    30    14    15   ar
    31    14    41    1
    32    15    16    1
    33    16    17   am
    34    16    42    1
    35    17    18    2
    36    19    20    1
    37    19    21    1
    38    19    23    1
    39    21    22    1
    40    21    43    1
    41    21    44    1
    42    22    45    1
    43    22    46    1
    44    22    47    1
    45    23    24    2
    46    23    25    1
    47    25    26    1
    48    26    27    1
    49    26    48    1
    50    26    49    1
    51    27    50    1
    52    27    51    1
    53    27    52    1
@<TRIPOS>SUBSTRUCTURE
     1 ZINC000190927708        1 TEMP              0 ****  ****    0 ROOT


##########                                Name:    ZINC000564088286
##########                DOCK_Rotatable_Bonds:                   6
##########                         Heavy_Atoms:                  25
##########                    Molecular_Weight:             398.934
##########                DOCK_Rotatable_Bonds:                   6
##########                       Formal_Charge:               -0.05
##########                     HBond_Acceptors:                   8
##########                        HBond_Donors:                   1
##########                         Heavy_Atoms:                  25
##########                          Grid_Score:          -35.497189
##########                     Grid_vdw_energy:          -34.518242
##########                      Grid_es_energy:           -0.978945
##########           Internal_energy_repulsive:           13.296274

@<TRIPOS>MOLECULE
ZINC000564088286
 44 46 1 0 0
SMALL
USER_CHARGES


@<TRIPOS>ATOM
      1 C1         -5.8135    1.5103   65.3611 C.3     1  ZINC000564088286   -0.1600
      2 C2         -6.1079    1.0363   66.7857 C.3     1  ZINC000564088286    0.1100
      3 N3         -7.3354    1.6738   67.2685 N.am    1  ZINC000564088286   -1.1200
      4 S4         -8.7913    0.9037   67.0960 S.o2    1  ZINC000564088286    2.7000
      5 O5         -8.6348   -0.3847   67.6746 O.2     1  ZINC000564088286   -0.9600
      6 O6         -9.7862    1.8280   67.5144 O.2     1  ZINC000564088286   -0.9600
      7 C7         -9.0444    0.6470   65.3713 C.ar    1  ZINC000564088286   -0.6800
      8 C8         -8.6065   -0.5206   64.7747 C.ar    1  ZINC000564088286   -0.0200
      9 C9         -8.8051   -0.7220   63.4216 C.ar    1  ZINC000564088286   -0.1300
     10 C10        -9.4418    0.2440   62.6651 C.ar    1  ZINC000564088286   -0.0100
     11 C11        -9.6577    0.0247   61.1899 C.3     1  ZINC000564088286   -0.1100
     12 C12       -11.0340   -0.5459   60.9630 C.2     1  ZINC000564088286    0.5200
     13 O13       -11.8016   -0.6663   61.8943 O.2     1  ZINC000564088286   -0.5200
     14 N14       -11.4118   -0.9224   59.7253 N.am    1  ZINC000564088286   -0.6200
     15 C15       -10.4968   -0.7849   58.5822 C.3     1  ZINC000564088286    0.1200
     16 C16       -10.1590   -2.1835   58.0566 C.3     1  ZINC000564088286   -0.0700
     17 C17       -11.4325   -2.9965   57.9591 C.2     1  ZINC000564088286   -0.1600
     18 C18       -12.5862   -2.7057   58.5886 C.2     1  ZINC000564088286   -0.1200
     19 C19       -13.6072   -3.6185   58.3407 C.2     1  ZINC000564088286   -0.1100
     20 C20       -13.2957   -4.6223   57.5249 C.2     1  ZINC000564088286   -0.1500
     21 Cl21      -14.3753   -5.8945   57.0457 Cl      1  ZINC000564088286   -0.0100
     22 S22       -11.6245   -4.4627   57.0064 S.3     1  ZINC000564088286    0.1600
     23 C23       -12.7471   -1.4869   59.4834 C.3     1  ZINC000564088286    0.1700
     24 C24        -9.8808    1.4111   63.2620 C.ar    1  ZINC000564088286   -0.1300
     25 C25        -9.6858    1.6108   64.6158 C.ar    1  ZINC000564088286   -0.0200
     26 H26        -6.6440    1.2397   64.7092 H       1  ZINC000564088286    0.0600
     27 H27        -5.6864    2.5928   65.3573 H       1  ZINC000564088286    0.0600
     28 H28        -4.9002    1.0361   65.0019 H       1  ZINC000564088286    0.0700
     29 H29        -6.2349   -0.0462   66.7895 H       1  ZINC000564088286    0.0800
     30 H30        -5.2773    1.3069   67.4377 H       1  ZINC000564088286    0.0700
     31 H31        -7.2954    2.5468   67.6893 H       1  ZINC000564088286    0.4200
     32 H32        -8.1091   -1.2753   65.3657 H       1  ZINC000564088286    0.1400
     33 H33        -8.4624   -1.6340   62.9554 H       1  ZINC000564088286    0.1300
     34 H34        -9.5674    0.9752   60.6641 H       1  ZINC000564088286    0.1100
     35 H35        -8.9090   -0.6719   60.8127 H       1  ZINC000564088286    0.1100
     36 H36       -10.9787   -0.2047   57.7954 H       1  ZINC000564088286    0.0800
     37 H37        -9.5834   -0.2839   58.9029 H       1  ZINC000564088286    0.1100
     38 H38        -9.7023   -2.1017   57.0702 H       1  ZINC000564088286    0.0900
     39 H39        -9.4658   -2.6726   58.7410 H       1  ZINC000564088286    0.0900
     40 H40       -14.5879   -3.5188   58.7818 H       1  ZINC000564088286    0.1500
     41 H41       -13.2031   -1.7806   60.4289 H       1  ZINC000564088286    0.1000
     42 H42       -13.3712   -0.7440   58.9868 H       1  ZINC000564088286    0.0900
     43 H43       -10.3786    2.1656   62.6710 H       1  ZINC000564088286    0.1300
     44 H44       -10.0287    2.5225   65.0821 H       1  ZINC000564088286    0.1400
@<TRIPOS>BOND
     1     1     2    1
     2     1    26    1
     3     1    27    1
     4     1    28    1
     5     2     3    1
     6     2    29    1
     7     2    30    1
     8     3     4   am
     9     3    31    1
    10     4     5    2
    11     4     6    2
    12     4     7    1
    13     7    25   ar
    14     7     8   ar
    15     8     9   ar
    16     8    32    1
    17     9    10   ar
    18     9    33    1
    19    10    11    1
    20    10    24   ar
    21    11    12    1
    22    11    34    1
    23    11    35    1
    24    12    13    2
    25    12    14   am
    26    14    23    1
    27    14    15    1
    28    15    16    1
    29    15    36    1
    30    15    37    1
    31    16    17    1
    32    16    38    1
    33    16    39    1
    34    17    22    1
    35    17    18    2
    36    18    19    1
    37    18    23    1
    38    19    20    2
    39    19    40    1
    40    20    21    1
    41    20    22    1
    42    23    41    1
    43    23    42    1
    44    24    25   ar
    45    24    43    1
    46    25    44    1
@<TRIPOS>SUBSTRUCTURE
     1 ZINC000564088286        1 TEMP              0 ****  ****    0 ROOT


##########                                Name:    ZINC000432058199
##########                DOCK_Rotatable_Bonds:                   5
##########                         Heavy_Atoms:                  30
##########                    Molecular_Weight:             406.441
##########                DOCK_Rotatable_Bonds:                   5
##########                       Formal_Charge:        -4.02331e-07
##########                     HBond_Acceptors:                   8
##########                        HBond_Donors:                   1
##########                         Heavy_Atoms:                  30
##########                          Grid_Score:          -35.494698
##########                     Grid_vdw_energy:          -35.119907
##########                      Grid_es_energy:           -0.374791
##########           Internal_energy_repulsive:           15.946792

@<TRIPOS>MOLECULE
ZINC000432058199
 52 55 1 0 0
SMALL
USER_CHARGES


@<TRIPOS>ATOM
      1 C1         -6.5118    0.0486   51.0031 C.3     1  ZINC000432058199    0.0300
      2 O2         -7.5468   -0.9099   51.2315 O.3     1  ZINC000432058199   -0.3100
      3 C3         -8.5948   -0.5147   52.0012 C.ar    1  ZINC000432058199    0.1300
      4 C4         -8.8396    0.8371   52.1989 C.ar    1  ZINC000432058199   -0.1900
      5 C5         -9.9046    1.2435   52.9811 C.ar    1  ZINC000432058199   -0.0800
      6 C6        -10.7304    0.3071   53.5697 C.ar    1  ZINC000432058199   -0.1100
      7 C7        -10.4917   -1.0523   53.3757 C.ar    1  ZINC000432058199    0.0100
      8 C8        -11.3786   -2.0612   54.0072 C.2     1  ZINC000432058199    0.2100
      9 N9        -11.0926   -3.3183   54.2247 N.2     1  ZINC000432058199   -0.3700
     10 O10       -12.0309   -3.8734   54.7564 O.3     1  ZINC000432058199    0.1200
     11 C11       -13.0330   -3.0073   54.9360 C.2     1  ZINC000432058199    0.1600
     12 C12       -14.3708   -3.3039   55.5633 C.3     1  ZINC000432058199    0.2500
     13 H13       -14.6477   -4.3376   55.3567 H       1  ZINC000432058199    0.1500
     14 C14       -15.4280   -2.3658   54.9775 C.3     1  ZINC000432058199   -0.1700
     15 N15       -14.2867   -3.1010   57.0118 N.am    1  ZINC000432058199   -0.5800
     16 C16       -14.5724   -4.0407   57.9202 C.2     1  ZINC000432058199    0.7000
     17 O17       -14.9338   -5.1661   57.6373 O.2     1  ZINC000432058199   -0.5100
     18 N18       -14.4148   -3.6009   59.1816 N.am    1  ZINC000432058199   -0.7200
     19 C19       -13.9710   -2.1994   59.0869 C.3     1  ZINC000432058199    0.1400
     20 H20       -14.6939   -1.5353   59.5605 H       1  ZINC000432058199    0.1400
     21 C21       -12.6099   -2.0308   59.7116 C.ar    1  ZINC000432058199   -0.1000
     22 C22       -11.5671   -2.8537   59.3288 C.ar    1  ZINC000432058199   -0.1000
     23 C23       -10.3186   -2.6991   59.9019 C.ar    1  ZINC000432058199   -0.0800
     24 C24        -9.1819   -3.5962   59.4850 C.3     1  ZINC000432058199   -0.1200
     25 C25       -10.1128   -1.7212   60.8570 C.ar    1  ZINC000432058199   -0.1100
     26 C26       -11.1556   -0.8982   61.2395 C.ar    1  ZINC000432058199   -0.0800
     27 C27       -10.9313    0.1676   62.2811 C.3     1  ZINC000432058199   -0.1200
     28 C28       -12.4029   -1.0500   60.6634 C.ar    1  ZINC000432058199   -0.1000
     29 C29       -13.9064   -1.9464   57.5937 C.2     1  ZINC000432058199    0.5300
     30 O30       -13.5851   -0.9177   57.0384 O.2     1  ZINC000432058199   -0.4500
     31 N31       -12.6313   -1.8508   54.4705 N.2     1  ZINC000432058199   -0.4500
     32 C32        -9.4222   -1.4611   52.5836 C.ar    1  ZINC000432058199   -0.1200
     33 H33        -5.7384   -0.3943   50.3755 H       1  ZINC000432058199    0.1000
     34 H34        -6.9296    0.9222   50.5026 H       1  ZINC000432058199    0.0600
     35 H35        -6.0779    0.3491   51.9568 H       1  ZINC000432058199    0.0600
     36 H36        -8.1961    1.5735   51.7408 H       1  ZINC000432058199    0.1400
     37 H37       -10.0908    2.2966   53.1324 H       1  ZINC000432058199    0.1400
     38 H38       -11.5612    0.6277   54.1808 H       1  ZINC000432058199    0.1400
     39 H39       -15.1511   -1.3320   55.1842 H       1  ZINC000432058199    0.0900
     40 H40       -15.4906   -2.5167   53.8998 H       1  ZINC000432058199    0.0900
     41 H41       -16.3956   -2.5804   55.4313 H       1  ZINC000432058199    0.0900
     42 H42       -14.5648   -4.1075   59.9952 H       1  ZINC000432058199    0.4500
     43 H43       -11.7278   -3.6173   58.5823 H       1  ZINC000432058199    0.1200
     44 H44        -8.6516   -3.1450   58.6464 H       1  ZINC000432058199    0.0700
     45 H45        -8.4954   -3.7255   60.3218 H       1  ZINC000432058199    0.0700
     46 H46        -9.5764   -4.5671   59.1854 H       1  ZINC000432058199    0.0700
     47 H47        -9.1375   -1.6005   61.3048 H       1  ZINC000432058199    0.1300
     48 H48       -10.6211    1.0920   61.7941 H       1  ZINC000432058199    0.0700
     49 H49       -11.8570    0.3391   62.8305 H       1  ZINC000432058199    0.0700
     50 H50       -10.1536   -0.1577   62.9722 H       1  ZINC000432058199    0.0700
     51 H51       -13.2176   -0.4070   60.9621 H       1  ZINC000432058199    0.1300
     52 H52        -9.2332   -2.5133   52.4303 H       1  ZINC000432058199    0.1400
@<TRIPOS>BOND
     1     1     2    1
     2     1    33    1
     3     1    34    1
     4     1    35    1
     5     2     3    1
     6     3    32   ar
     7     3     4   ar
     8     4     5   ar
     9     4    36    1
    10     5     6   ar
    11     5    37    1
    12     6     7   ar
    13     6    38    1
    14     7     8    1
    15     7    32   ar
    16     8    31    1
    17     8     9    2
    18     9    10    1
    19    10    11    1
    20    11    12    1
    21    11    31    2
    22    12    13    1
    23    12    14    1
    24    12    15    1
    25    14    39    1
    26    14    40    1
    27    14    41    1
    28    15    29   am
    29    15    16   am
    30    16    17    2
    31    16    18   am
    32    18    19    1
    33    18    42    1
    34    19    20    1
    35    19    21    1
    36    19    29    1
    37    21    28   ar
    38    21    22   ar
    39    22    23   ar
    40    22    43    1
    41    23    24    1
    42    23    25   ar
    43    24    44    1
    44    24    45    1
    45    24    46    1
    46    25    26   ar
    47    25    47    1
    48    26    27    1
    49    26    28   ar
    50    27    48    1
    51    27    49    1
    52    27    50    1
    53    28    51    1
    54    29    30    2
    55    32    52    1
@<TRIPOS>SUBSTRUCTURE
     1 ZINC000432058199        1 TEMP              0 ****  ****    0 ROOT


##########                                Name:    ZINC000151820600
##########                DOCK_Rotatable_Bonds:                  10
##########                         Heavy_Atoms:                  25
##########                    Molecular_Weight:             388.915
##########                DOCK_Rotatable_Bonds:                  10
##########                       Formal_Charge:           0.0499998
##########                     HBond_Acceptors:                   8
##########                        HBond_Donors:                   2
##########                         Heavy_Atoms:                  25
##########                          Grid_Score:          -35.490307
##########                     Grid_vdw_energy:          -34.836700
##########                      Grid_es_energy:           -0.653607
##########           Internal_energy_repulsive:           16.442875

@<TRIPOS>MOLECULE
ZINC000151820600
 50 50 1 0 0
SMALL
USER_CHARGES


@<TRIPOS>ATOM
      1 C1        -13.0403   -0.5780   62.8866 C.3     1  ZINC000151820600   -0.4900
      2 S2        -14.3718   -0.4969   61.6573 S.o     1  ZINC000151820600    1.2500
      3 O3        -15.6280   -0.4671   62.3210 O.2     1  ZINC000151820600   -0.8500
      4 C4        -14.1975   -2.0654   60.7630 C.3     1  ZINC000151820600   -0.4500
      5 C5        -15.2672   -2.1522   59.6725 C.3     1  ZINC000151820600   -0.1100
      6 C6        -15.0868   -3.4506   58.8832 C.3     1  ZINC000151820600    0.1200
      7 N7        -13.8043   -3.4178   58.1759 N.am    1  ZINC000151820600   -0.7200
      8 C8        -13.3311   -4.5336   57.5864 C.2     1  ZINC000151820600    0.5200
      9 O9        -13.9665   -5.5653   57.6427 O.2     1  ZINC000151820600   -0.5200
     10 C10       -12.0128   -4.4995   56.8572 C.3     1  ZINC000151820600    0.1900
     11 H11       -11.6677   -5.5185   56.6825 H       1  ZINC000151820600    0.1300
     12 N12       -12.1825   -3.8146   55.5732 N.am    1  ZINC000151820600   -0.6900
     13 C13       -13.0091   -4.3270   54.6402 C.2     1  ZINC000151820600    0.6600
     14 O14       -13.6125   -5.3578   54.8633 O.2     1  ZINC000151820600   -0.5600
     15 O15       -13.1662   -3.6967   53.4609 O.3     1  ZINC000151820600   -0.3600
     16 C16       -14.1138   -2.5972   53.4222 C.3     1  ZINC000151820600    0.1400
     17 C17       -13.3970   -1.2934   53.7789 C.3     1  ZINC000151820600   -0.1800
     18 C18       -14.7074   -2.4847   52.0165 C.3     1  ZINC000151820600   -0.1400
     19 C19       -15.2354   -2.8548   54.4304 C.3     1  ZINC000151820600   -0.1800
     20 C20       -10.9970   -3.7609   57.6901 C.ar    1  ZINC000151820600   -0.1000
     21 C21       -10.2840   -4.4319   58.6657 C.ar    1  ZINC000151820600   -0.0900
     22 C22        -9.3515   -3.7551   59.4299 C.ar    1  ZINC000151820600   -0.1000
     23 C23        -9.1321   -2.4071   59.2190 C.ar    1  ZINC000151820600   -0.1000
     24 C24        -9.8457   -1.7347   58.2424 C.ar    1  ZINC000151820600   -0.0300
     25 Cl25       -9.5704   -0.0414   57.9765 Cl      1  ZINC000151820600   -0.0600
     26 C26       -10.7744   -2.4137   57.4744 C.ar    1  ZINC000151820600   -0.0900
     27 H27       -13.1913   -1.4456   63.5290 H       1  ZINC000151820600    0.0800
     28 H28       -12.0805   -0.6656   62.3774 H       1  ZINC000151820600    0.1100
     29 H29       -13.0490    0.3283   63.4921 H       1  ZINC000151820600    0.1100
     30 H30       -13.2088   -2.1158   60.3068 H       1  ZINC000151820600    0.1200
     31 H31       -14.3196   -2.8957   61.4585 H       1  ZINC000151820600    0.0900
     32 H32       -16.2558   -2.1405   60.1314 H       1  ZINC000151820600    0.0800
     33 H33       -15.1692   -1.3009   58.9988 H       1  ZINC000151820600    0.0900
     34 H34       -15.1020   -4.2977   59.5690 H       1  ZINC000151820600    0.0800
     35 H35       -15.8973   -3.5527   58.1616 H       1  ZINC000151820600    0.0700
     36 H36       -13.2956   -2.5930   58.1318 H       1  ZINC000151820600    0.4000
     37 H37       -11.6998   -2.9923   55.3947 H       1  ZINC000151820600    0.4200
     38 H38       -12.5979   -1.1099   53.0606 H       1  ZINC000151820600    0.0600
     39 H39       -14.1083   -0.4680   53.7498 H       1  ZINC000151820600    0.0700
     40 H40       -12.9741   -1.3735   54.7803 H       1  ZINC000151820600    0.0900
     41 H41       -15.2181   -3.4135   51.7624 H       1  ZINC000151820600    0.0700
     42 H42       -15.4187   -1.6593   51.9875 H       1  ZINC000151820600    0.0800
     43 H43       -13.9083   -2.3012   51.2982 H       1  ZINC000151820600    0.0700
     44 H44       -14.8125   -2.9349   55.4318 H       1  ZINC000151820600    0.0900
     45 H45       -15.9467   -2.0294   54.4013 H       1  ZINC000151820600    0.0700
     46 H46       -15.7461   -3.7837   54.1763 H       1  ZINC000151820600    0.0600
     47 H47       -10.4555   -5.4852   58.8313 H       1  ZINC000151820600    0.1300
     48 H48        -8.7946   -4.2798   60.1920 H       1  ZINC000151820600    0.1400
     49 H49        -8.4043   -1.8783   59.8165 H       1  ZINC000151820600    0.1400
     50 H50       -11.3316   -1.8896   56.7120 H       1  ZINC000151820600    0.1400
@<TRIPOS>BOND
     1     1     2    1
     2     1    27    1
     3     1    28    1
     4     1    29    1
     5     2     3    2
     6     2     4    1
     7     4     5    1
     8     4    30    1
     9     4    31    1
    10     5     6    1
    11     5    32    1
    12     5    33    1
    13     6     7    1
    14     6    34    1
    15     6    35    1
    16     7     8   am
    17     7    36    1
    18     8     9    2
    19     8    10    1
    20    10    11    1
    21    10    12    1
    22    10    20    1
    23    12    13   am
    24    12    37    1
    25    13    14    2
    26    13    15    1
    27    15    16    1
    28    16    17    1
    29    16    18    1
    30    16    19    1
    31    17    38    1
    32    17    39    1
    33    17    40    1
    34    18    41    1
    35    18    42    1
    36    18    43    1
    37    19    44    1
    38    19    45    1
    39    19    46    1
    40    20    26   ar
    41    20    21   ar
    42    21    22   ar
    43    21    47    1
    44    22    23   ar
    45    22    48    1
    46    23    24   ar
    47    23    49    1
    48    24    25    1
    49    24    26   ar
    50    26    50    1
@<TRIPOS>SUBSTRUCTURE
     1 ZINC000151820600        1 TEMP              0 ****  ****    0 ROOT


##########                                Name:    ZINC000753658424
##########                DOCK_Rotatable_Bonds:                   8
##########                         Heavy_Atoms:                  24
##########                    Molecular_Weight:             332.399
##########                DOCK_Rotatable_Bonds:                   8
##########                       Formal_Charge:        -9.16421e-07
##########                     HBond_Acceptors:                   6
##########                        HBond_Donors:                   3
##########                         Heavy_Atoms:                  24
##########                          Grid_Score:          -35.488728
##########                     Grid_vdw_energy:          -34.860828
##########                      Grid_es_energy:           -0.627900
##########           Internal_energy_repulsive:           18.006748

@<TRIPOS>MOLECULE
ZINC000753658424
 48 49 1 0 0
SMALL
USER_CHARGES


@<TRIPOS>ATOM
      1 C1         -4.2761    4.5353   52.9450 C.3     1  ZINC000753658424   -0.2000
      2 C2         -3.8370    3.1101   52.7287 C.2     1  ZINC000753658424    0.4400
      3 O3         -3.5165    2.4236   53.6763 O.2     1  ZINC000753658424   -0.4500
      4 C4         -3.7970    2.5529   51.3731 C.2     1  ZINC000753658424   -0.2500
      5 C5         -4.8042    1.8362   50.7458 C.2     1  ZINC000753658424    0.1000
      6 C6         -6.1439    1.4901   51.3430 C.3     1  ZINC000753658424   -0.1000
      7 N7         -4.3833    1.5039   49.5167 N.pl3   1  ZINC000753658424   -0.5300
      8 C8         -3.1090    1.9926   49.3238 C.2     1  ZINC000753658424   -0.0600
      9 C9         -2.3044    1.8366   48.1053 C.2     1  ZINC000753658424    0.5900
     10 O10        -2.2204    2.7537   47.3101 O.2     1  ZINC000753658424   -0.5200
     11 N11        -1.6590    0.6775   47.8677 N.am    1  ZINC000753658424   -0.7300
     12 C12        -0.8576    0.5213   46.6513 C.3     1  ZINC000753658424    0.0900
     13 C13        -1.7435   -0.0074   45.5214 C.3     1  ZINC000753658424    0.1900
     14 H14        -2.6236    0.6279   45.4221 H       1  ZINC000753658424    0.1300
     15 O15        -2.1519   -1.3435   45.8219 O.3     1  ZINC000753658424   -0.5500
     16 C16        -0.9685    0.0022   44.2290 C.2     1  ZINC000753658424   -0.0600
     17 C17        -0.0012    0.8765   43.8985 C.2     1  ZINC000753658424   -0.1800
     18 C18         0.4498    0.5193   42.6069 C.2     1  ZINC000753658424   -0.2100
     19 C19        -0.2690   -0.5518   42.2256 C.2     1  ZINC000753658424    0.0000
     20 C20        -0.1344   -1.2821   40.9142 C.3     1  ZINC000753658424   -0.0800
     21 O21        -1.1224   -0.8641   43.2144 O.3     1  ZINC000753658424   -0.1700
     22 C22        -2.7250    2.6501   50.4536 C.2     1  ZINC000753658424   -0.0100
     23 C23        -1.4059    3.3413   50.6843 C.3     1  ZINC000753658424   -0.0500
     24 C24        -0.2632    2.4076   50.2797 C.3     1  ZINC000753658424   -0.1500
     25 C25        -1.3445    4.6172   49.8423 C.3     1  ZINC000753658424   -0.1500
     26 H26        -4.3177    4.7445   54.0140 H       1  ZINC000753658424    0.0800
     27 H27        -3.5646    5.2107   52.4701 H       1  ZINC000753658424    0.1000
     28 H28        -5.2637    4.6816   52.5075 H       1  ZINC000753658424    0.0900
     29 H29        -6.8791    2.2369   51.0435 H       1  ZINC000753658424    0.0900
     30 H30        -6.4574    0.5085   50.9876 H       1  ZINC000753658424    0.0800
     31 H31        -6.0640    1.4744   52.4300 H       1  ZINC000753658424    0.0900
     32 H32        -4.8952    0.9989   48.8656 H       1  ZINC000753658424    0.4200
     33 H33        -1.7250   -0.0532   48.5023 H       1  ZINC000753658424    0.4000
     34 H34        -0.4407    1.4867   46.3646 H       1  ZINC000753658424    0.0900
     35 H35        -0.0474   -0.1835   46.8379 H       1  ZINC000753658424    0.0800
     36 H36        -2.6331   -1.4295   46.6563 H       1  ZINC000753658424    0.3900
     37 H37         0.3611    1.6946   44.5033 H       1  ZINC000753658424    0.1500
     38 H38         1.2228    1.0121   42.0360 H       1  ZINC000753658424    0.1500
     39 H39         0.6019   -2.0794   41.0162 H       1  ZINC000753658424    0.0800
     40 H40        -1.0974   -1.7103   40.6362 H       1  ZINC000753658424    0.0800
     41 H41         0.1899   -0.5848   40.1417 H       1  ZINC000753658424    0.0900
     42 H42        -1.3095    3.5972   51.7394 H       1  ZINC000753658424    0.1100
     43 H43        -0.2893    2.2477   49.2018 H       1  ZINC000753658424    0.0500
     44 H44         0.6896    2.8581   50.5572 H       1  ZINC000753658424    0.0600
     45 H45        -0.3762    1.4520   50.7917 H       1  ZINC000753658424    0.0600
     46 H46        -2.1086    5.3153   50.1843 H       1  ZINC000753658424    0.0500
     47 H47        -0.3609    5.0751   49.9477 H       1  ZINC000753658424    0.0600
     48 H48        -1.5202    4.3704   48.7953 H       1  ZINC000753658424    0.0600
@<TRIPOS>BOND
     1     1     2    1
     2     1    26    1
     3     1    27    1
     4     1    28    1
     5     2     3    2
     6     2     4    1
     7     4    22    1
     8     4     5    2
     9     5     6    1
    10     5     7    1
    11     6    29    1
    12     6    30    1
    13     6    31    1
    14     7     8    1
    15     7    32    1
    16     8     9    1
    17     8    22    2
    18     9    10    2
    19     9    11   am
    20    11    12    1
    21    11    33    1
    22    12    13    1
    23    12    34    1
    24    12    35    1
    25    13    14    1
    26    13    15    1
    27    13    16    1
    28    15    36    1
    29    16    21    1
    30    16    17    2
    31    17    18    1
    32    17    37    1
    33    18    19    2
    34    18    38    1
    35    19    20    1
    36    19    21    1
    37    20    39    1
    38    20    40    1
    39    20    41    1
    40    22    23    1
    41    23    24    1
    42    23    25    1
    43    23    42    1
    44    24    43    1
    45    24    44    1
    46    24    45    1
    47    25    46    1
    48    25    47    1
    49    25    48    1
@<TRIPOS>SUBSTRUCTURE
     1 ZINC000753658424        1 TEMP              0 ****  ****    0 ROOT


##########                                Name:    ZINC000188380122
##########                DOCK_Rotatable_Bonds:                   6
##########                         Heavy_Atoms:                  27
##########                    Molecular_Weight:             396.433
##########                DOCK_Rotatable_Bonds:                   6
##########                       Formal_Charge:           0.0299998
##########                     HBond_Acceptors:                   8
##########                        HBond_Donors:                   1
##########                         Heavy_Atoms:                  27
##########                          Grid_Score:          -35.463367
##########                     Grid_vdw_energy:          -35.142807
##########                      Grid_es_energy:           -0.320561
##########           Internal_energy_repulsive:            9.081317

@<TRIPOS>MOLECULE
ZINC000188380122
 46 49 1 0 0
SMALL
USER_CHARGES


@<TRIPOS>ATOM
      1 O1        -11.2375   -4.3389   52.9790 O.2     1  ZINC000188380122   -0.5200
      2 C2        -12.0871   -3.4757   53.0428 C.2     1  ZINC000188380122    0.5200
      3 C3        -12.0325   -2.2941   52.1091 C.3     1  ZINC000188380122   -0.0700
      4 C4        -11.1466   -1.2276   52.6998 C.2     1  ZINC000188380122    0.0900
      5 C5        -11.4823   -0.5591   53.8082 C.2     1  ZINC000188380122   -0.2400
      6 S6        -10.1958    0.5901   54.1696 S.3     1  ZINC000188380122    0.1000
      7 C7         -9.3104    0.0377   52.7501 C.2     1  ZINC000188380122    0.1100
      8 C8         -7.9985    0.5527   52.3029 C.ar    1  ZINC000188380122   -0.0200
      9 C9         -7.2368   -0.1725   51.3860 C.ar    1  ZINC000188380122   -0.0400
     10 C10        -6.0135    0.3139   50.9723 C.ar    1  ZINC000188380122   -0.1200
     11 C11        -5.5418    1.5175   51.4650 C.ar    1  ZINC000188380122   -0.0600
     12 C12        -6.2925    2.2414   52.3745 C.ar    1  ZINC000188380122   -0.1800
     13 C13        -5.7710    3.5518   52.9056 C.3     1  ZINC000188380122    0.5100
     14 F14        -4.3726    3.5210   52.9320 F       1  ZINC000188380122   -0.1700
     15 F15        -6.1990    4.5944   52.0767 F       1  ZINC000188380122   -0.1700
     16 F16        -6.2575    3.7564   54.2013 F       1  ZINC000188380122   -0.1700
     17 C17        -7.5195    1.7690   52.7918 C.ar    1  ZINC000188380122   -0.0500
     18 N18        -9.9945   -0.9010   52.1611 N.2     1  ZINC000188380122   -0.4300
     19 N19       -13.0833   -3.5761   53.9450 N.am    1  ZINC000188380122   -0.7200
     20 C20       -13.1364   -4.7247   54.8527 C.3     1  ZINC000188380122    0.1300
     21 H21       -12.6412   -5.6075   54.4485 H       1  ZINC000188380122    0.1200
     22 C22       -14.5431   -5.0069   55.4098 C.3     1  ZINC000188380122   -0.1800
     23 C23       -13.8505   -5.3231   56.7405 C.3     1  ZINC000188380122    0.0900
     24 H24       -13.5211   -6.3611   56.7873 H       1  ZINC000188380122    0.1200
     25 O25       -14.5640   -4.9574   57.8949 O.3     1  ZINC000188380122   -0.3700
     26 C26       -14.7621   -3.5866   58.1870 C.3     1  ZINC000188380122    0.0700
     27 C27       -13.4540   -2.8074   58.0587 C.3     1  ZINC000188380122   -0.1600
     28 C28       -12.9554   -2.9231   56.6149 C.3     1  ZINC000188380122   -0.1100
     29 C29       -12.7198   -4.3897   56.2994 C.3     1  ZINC000188380122   -0.1500
     30 H30       -11.7217   -4.7348   56.5694 H       1  ZINC000188380122    0.0900
     31 H31       -11.6290   -2.6097   51.1469 H       1  ZINC000188380122    0.1100
     32 H32       -13.0371   -1.8952   51.9685 H       1  ZINC000188380122    0.1100
     33 H33       -12.3861   -0.6990   54.3826 H       1  ZINC000188380122    0.1800
     34 H34        -7.6036   -1.1125   51.0012 H       1  ZINC000188380122    0.1500
     35 H35        -5.4229   -0.2463   50.2626 H       1  ZINC000188380122    0.1400
     36 H36        -4.5835    1.8934   51.1386 H       1  ZINC000188380122    0.1500
     37 H37        -8.1044    2.3350   53.5016 H       1  ZINC000188380122    0.1400
     38 H38       -13.7650   -2.8877   53.9934 H       1  ZINC000188380122    0.4000
     39 H39       -15.1842   -4.1261   55.4478 H       1  ZINC000188380122    0.0900
     40 H40       -15.0304   -5.8686   54.9537 H       1  ZINC000188380122    0.0800
     41 H41       -15.4942   -3.1743   57.4926 H       1  ZINC000188380122    0.0500
     42 H42       -15.1395   -3.4879   59.2047 H       1  ZINC000188380122    0.1000
     43 H43       -13.6270   -1.7593   58.3032 H       1  ZINC000188380122    0.0800
     44 H44       -12.7106   -3.2260   58.7372 H       1  ZINC000188380122    0.0800
     45 H45       -13.7059   -2.5187   55.9357 H       1  ZINC000188380122    0.0700
     46 H46       -12.0233   -2.3690   56.5047 H       1  ZINC000188380122    0.0800
@<TRIPOS>BOND
     1     1     2    2
     2     2     3    1
     3     2    19   am
     4     3     4    1
     5     3    31    1
     6     3    32    1
     7     4    18    1
     8     4     5    2
     9     5     6    1
    10     5    33    1
    11     6     7    1
    12     7     8    1
    13     7    18    2
    14     8    17   ar
    15     8     9   ar
    16     9    10   ar
    17     9    34    1
    18    10    11   ar
    19    10    35    1
    20    11    12   ar
    21    11    36    1
    22    12    13    1
    23    12    17   ar
    24    13    14    1
    25    13    15    1
    26    13    16    1
    27    17    37    1
    28    19    20    1
    29    19    38    1
    30    20    21    1
    31    20    29    1
    32    20    22    1
    33    22    23    1
    34    22    39    1
    35    22    40    1
    36    23    24    1
    37    23    29    1
    38    23    25    1
    39    25    26    1
    40    26    27    1
    41    26    41    1
    42    26    42    1
    43    27    28    1
    44    27    43    1
    45    27    44    1
    46    28    29    1
    47    28    45    1
    48    28    46    1
    49    29    30    1
@<TRIPOS>SUBSTRUCTURE
     1 ZINC000188380122        1 TEMP              0 ****  ****    0 ROOT


##########                                Name:    ZINC000788423111
##########                DOCK_Rotatable_Bonds:                   7
##########                         Heavy_Atoms:                  23
##########                    Molecular_Weight:             399.243
##########                DOCK_Rotatable_Bonds:                   7
##########                       Formal_Charge:         1.04308e-07
##########                     HBond_Acceptors:                   8
##########                        HBond_Donors:                   1
##########                         Heavy_Atoms:                  23
##########                          Grid_Score:          -35.456165
##########                     Grid_vdw_energy:          -33.563614
##########                      Grid_es_energy:           -1.892552
##########           Internal_energy_repulsive:            4.730756

@<TRIPOS>MOLECULE
ZINC000788423111
 35 37 1 0 0
SMALL
USER_CHARGES


@<TRIPOS>ATOM
      1 O1         -8.6752   -3.9167   60.0779 O.3     1  ZINC000788423111   -0.5400
      2 C2         -9.1462   -2.5797   59.8972 C.3     1  ZINC000788423111    0.1000
      3 H3         -8.6147   -2.1164   59.0660 H       1  ZINC000788423111    0.1300
      4 C4         -8.8971   -1.7744   61.1740 C.3     1  ZINC000788423111    0.0300
      5 O5        -10.1481   -1.4476   61.7828 O.3     1  ZINC000788423111   -0.2900
      6 C6        -10.1631   -0.3849   62.6295 C.ar    1  ZINC000788423111    0.1700
      7 C7        -11.1276    0.6016   62.4885 C.ar    1  ZINC000788423111   -0.2400
      8 C8        -11.1409    1.6831   63.3518 C.ar    1  ZINC000788423111    0.1500
      9 F9        -12.0801    2.6447   63.2154 F       1  ZINC000788423111   -0.1300
     10 C10       -10.1923    1.7796   64.3557 C.ar    1  ZINC000788423111   -0.1600
     11 C11        -9.2296    0.7962   64.4967 C.ar    1  ZINC000788423111   -0.0300
     12 Br12       -7.9353    0.9311   65.8688 Br      1  ZINC000788423111   -0.0200
     13 C13        -9.2168   -0.2882   63.6397 C.ar    1  ZINC000788423111   -0.1300
     14 C14       -10.6456   -2.6039   59.5938 C.3     1  ZINC000788423111    0.1000
     15 N15       -10.8623   -3.1295   58.2438 N.pl3   1  ZINC000788423111   -0.1300
     16 N16       -11.0135   -4.3723   57.9444 N.2     1  ZINC000788423111   -0.0500
     17 N17       -11.1824   -4.4797   56.6702 N.2     1  ZINC000788423111   -0.2600
     18 C18       -11.1331   -3.2409   56.1564 C.2     1  ZINC000788423111    0.2400
     19 C19       -11.2768   -2.8683   54.7321 C.2     1  ZINC000788423111   -0.1300
     20 C20       -11.2036   -1.6144   54.2449 C.2     1  ZINC000788423111   -0.0800
     21 C21       -11.3698   -1.5158   52.8786 C.2     1  ZINC000788423111   -0.1400
     22 C22       -11.5773   -2.6755   52.2486 C.2     1  ZINC000788423111   -0.2000
     23 S23       -11.5624   -3.9946   53.4116 S.3     1  ZINC000788423111    0.1700
     24 N24       -10.9369   -2.4196   57.1708 N.2     1  ZINC000788423111   -0.2900
     25 H25        -7.7440   -3.9747   60.3319 H       1  ZINC000788423111    0.3800
     26 H26        -8.2998   -2.3671   61.8668 H       1  ZINC000788423111    0.0900
     27 H27        -8.3629   -0.8571   60.9266 H       1  ZINC000788423111    0.0800
     28 H28       -11.8675    0.5260   61.7053 H       1  ZINC000788423111    0.1500
     29 H29       -10.2037    2.6238   65.0292 H       1  ZINC000788423111    0.1500
     30 H30        -8.4651   -1.0556   63.7507 H       1  ZINC000788423111    0.1500
     31 H31       -11.1526   -3.2418   60.3178 H       1  ZINC000788423111    0.1300
     32 H32       -11.0457   -1.5919   59.6584 H       1  ZINC000788423111    0.1300
     33 H33       -11.0291   -0.7541   54.8740 H       1  ZINC000788423111    0.1500
     34 H34       -11.3349   -0.5707   52.3570 H       1  ZINC000788423111    0.1500
     35 H35       -11.7271   -2.7867   51.1849 H       1  ZINC000788423111    0.1700
@<TRIPOS>BOND
     1     1     2    1
     2     1    25    1
     3     2     3    1
     4     2     4    1
     5     2    14    1
     6     4     5    1
     7     4    26    1
     8     4    27    1
     9     5     6    1
    10     6    13   ar
    11     6     7   ar
    12     7     8   ar
    13     7    28    1
    14     8     9    1
    15     8    10   ar
    16    10    11   ar
    17    10    29    1
    18    11    12    1
    19    11    13   ar
    20    13    30    1
    21    14    15    1
    22    14    31    1
    23    14    32    1
    24    15    24    1
    25    15    16    1
    26    16    17    2
    27    17    18    1
    28    18    19    1
    29    18    24    2
    30    19    23    1
    31    19    20    2
    32    20    21    1
    33    20    33    1
    34    21    22    2
    35    21    34    1
    36    22    23    1
    37    22    35    1
@<TRIPOS>SUBSTRUCTURE
     1 ZINC000788423111        1 TEMP              0 ****  ****    0 ROOT


##########                                Name:    ZINC001061022329
##########                DOCK_Rotatable_Bonds:                   7
##########                         Heavy_Atoms:                  27
##########                    Molecular_Weight:             374.523
##########                DOCK_Rotatable_Bonds:                   7
##########                       Formal_Charge:           0.0800005
##########                     HBond_Acceptors:                   5
##########                        HBond_Donors:                   0
##########                         Heavy_Atoms:                  27
##########                          Grid_Score:          -35.421211
##########                     Grid_vdw_energy:          -33.952503
##########                      Grid_es_energy:           -1.468707
##########           Internal_energy_repulsive:           20.815727

@<TRIPOS>MOLECULE
ZINC001061022329
 61 64 1 0 0
SMALL
USER_CHARGES


@<TRIPOS>ATOM
      1 C1        -10.5804    2.0076   67.1844 C.3     1  ZINC001061022329   -0.1500
      2 C2         -9.1140    2.2104   66.7977 C.3     1  ZINC001061022329   -0.1200
      3 C3         -8.6926    1.1229   65.8074 C.3     1  ZINC001061022329    0.0800
      4 H4         -7.8380    1.4711   65.2273 H       1  ZINC001061022329    0.0600
      5 C5         -8.3065   -0.1434   66.5745 C.3     1  ZINC001061022329   -0.1800
      6 O6         -9.7800    0.8334   64.9266 O.3     1  ZINC001061022329   -0.3500
      7 C7         -9.3978    0.1301   63.7428 C.3     1  ZINC001061022329    0.0500
      8 C8        -10.6321   -0.2897   62.9872 C.2     1  ZINC001061022329    0.5200
      9 O9        -11.7274    0.0613   63.3721 O.2     1  ZINC001061022329   -0.5100
     10 N10       -10.5191   -1.0551   61.8838 N.am    1  ZINC001061022329   -0.6100
     11 C11        -9.1984   -1.4927   61.4129 C.3     1  ZINC001061022329    0.1100
     12 C12        -9.0238   -1.0522   59.9546 C.3     1  ZINC001061022329   -0.1200
     13 C13       -10.2217   -1.5344   59.1400 C.3     1  ZINC001061022329   -0.0900
     14 C14       -10.0525   -1.3446   57.6264 C.3     1  ZINC001061022329    0.1200
     15 N15       -10.6414   -2.6926   57.4964 N.am    1  ZINC001061022329   -0.6400
     16 C16       -11.3068   -3.3418   56.5206 C.2     1  ZINC001061022329    0.5400
     17 O17       -11.6856   -4.4801   56.6985 O.2     1  ZINC001061022329   -0.5300
     18 C18       -11.5803   -2.6531   55.2083 C.3     1  ZINC001061022329   -0.0900
     19 H19       -10.7488   -1.9914   54.9654 H       1  ZINC001061022329    0.1000
     20 C20       -12.8678   -1.8337   55.3211 C.3     1  ZINC001061022329   -0.1000
     21 C21       -13.8876   -2.3353   54.2908 C.3     1  ZINC001061022329   -0.0600
     22 H22       -14.8315   -1.7991   54.3886 H       1  ZINC001061022329    0.0800
     23 C23       -14.0876   -3.8261   54.5204 C.2     1  ZINC001061022329   -0.1800
     24 C24       -12.9679   -4.5387   54.4223 C.2     1  ZINC001061022329   -0.1300
     25 C25       -11.7367   -3.7046   54.1023 C.3     1  ZINC001061022329   -0.0400
     26 H26       -10.8511   -4.3354   54.0274 H       1  ZINC001061022329    0.0900
     27 C27       -11.9991   -2.9755   52.7773 C.3     1  ZINC001061022329   -0.1100
     28 C28       -13.2932   -2.1398   52.8892 C.3     1  ZINC001061022329   -0.1100
     29 C29       -10.2082   -3.0443   58.8635 C.3     1  ZINC001061022329    0.1100
     30 C30       -11.5572   -1.0236   59.6749 C.3     1  ZINC001061022329   -0.1100
     31 C31       -11.7152   -1.4688   61.1384 C.3     1  ZINC001061022329    0.1100
     32 H32       -11.2032    2.0679   66.2918 H       1  ZINC001061022329    0.0500
     33 H33       -10.7021    1.0282   67.6469 H       1  ZINC001061022329    0.0600
     34 H34       -10.8806    2.7824   67.8899 H       1  ZINC001061022329    0.0600
     35 H35        -8.9924    3.1899   66.3352 H       1  ZINC001061022329    0.0800
     36 H36        -8.4912    2.1503   67.6902 H       1  ZINC001061022329    0.0700
     37 H37        -8.0064   -0.9182   65.8690 H       1  ZINC001061022329    0.0600
     38 H38        -7.4771    0.0774   67.2463 H       1  ZINC001061022329    0.0700
     39 H39        -9.1612   -0.4916   67.1545 H       1  ZINC001061022329    0.0700
     40 H40        -8.7904    0.7809   63.1137 H       1  ZINC001061022329    0.0800
     41 H41        -8.8206   -0.7535   64.0156 H       1  ZINC001061022329    0.0800
     42 H42        -8.4219   -1.0372   62.0277 H       1  ZINC001061022329    0.0900
     43 H43        -9.1285   -2.5786   61.4776 H       1  ZINC001061022329    0.0800
     44 H44        -8.9646    0.0351   59.9070 H       1  ZINC001061022329    0.0800
     45 H45        -8.1094   -1.4862   59.5499 H       1  ZINC001061022329    0.0800
     46 H46       -10.6737   -0.5514   57.2105 H       1  ZINC001061022329    0.0800
     47 H47        -9.0129   -1.2861   57.3040 H       1  ZINC001061022329    0.0900
     48 H48       -13.2810   -1.9429   56.3239 H       1  ZINC001061022329    0.0700
     49 H49       -12.6473   -0.7831   55.1320 H       1  ZINC001061022329    0.0700
     50 H50       -15.0490   -4.2651   54.7425 H       1  ZINC001061022329    0.1200
     51 H51       -12.9362   -5.6097   54.5578 H       1  ZINC001061022329    0.1200
     52 H52       -11.1639   -2.3107   52.5570 H       1  ZINC001061022329    0.0700
     53 H53       -12.1029   -3.7061   51.9751 H       1  ZINC001061022329    0.0700
     54 H54       -14.0104   -2.4791   52.1418 H       1  ZINC001061022329    0.0700
     55 H55       -13.0621   -1.0882   52.7194 H       1  ZINC001061022329    0.0700
     56 H56        -9.2148   -3.4908   58.9088 H       1  ZINC001061022329    0.0900
     57 H57       -10.9532   -3.6020   59.4310 H       1  ZINC001061022329    0.0800
     58 H58       -11.5803    0.0647   59.6181 H       1  ZINC001061022329    0.0800
     59 H59       -12.3707   -1.4379   59.0795 H       1  ZINC001061022329    0.0800
     60 H60       -11.8222   -2.5527   61.1811 H       1  ZINC001061022329    0.0700
     61 H61       -12.5963   -0.9952   61.5714 H       1  ZINC001061022329    0.1000
@<TRIPOS>BOND
     1     1     2    1
     2     1    32    1
     3     1    33    1
     4     1    34    1
     5     2     3    1
     6     2    35    1
     7     2    36    1
     8     3     4    1
     9     3     5    1
    10     3     6    1
    11     5    37    1
    12     5    38    1
    13     5    39    1
    14     6     7    1
    15     7     8    1
    16     7    40    1
    17     7    41    1
    18     8     9    2
    19     8    10   am
    20    10    31    1
    21    10    11    1
    22    11    12    1
    23    11    42    1
    24    11    43    1
    25    12    13    1
    26    12    44    1
    27    12    45    1
    28    13    29    1
    29    13    14    1
    30    13    30    1
    31    14    15    1
    32    14    46    1
    33    14    47    1
    34    15    16   am
    35    15    29    1
    36    16    17    2
    37    16    18    1
    38    18    19    1
    39    18    25    1
    40    18    20    1
    41    20    21    1
    42    20    48    1
    43    20    49    1
    44    21    22    1
    45    21    28    1
    46    21    23    1
    47    23    24    2
    48    23    50    1
    49    24    25    1
    50    24    51    1
    51    25    26    1
    52    25    27    1
    53    27    28    1
    54    27    52    1
    55    27    53    1
    56    28    54    1
    57    28    55    1
    58    29    56    1
    59    29    57    1
    60    30    31    1
    61    30    58    1
    62    30    59    1
    63    31    60    1
    64    31    61    1
@<TRIPOS>SUBSTRUCTURE
     1 ZINC001061022329        1 TEMP              0 ****  ****    0 ROOT


##########                                Name:    ZINC000465392830
##########                DOCK_Rotatable_Bonds:                   8
##########                         Heavy_Atoms:                  29
##########                    Molecular_Weight:             419.588
##########                DOCK_Rotatable_Bonds:                   8
##########                       Formal_Charge:           0.0199996
##########                     HBond_Acceptors:                   7
##########                        HBond_Donors:                   0
##########                         Heavy_Atoms:                  29
##########                          Grid_Score:          -35.409191
##########                     Grid_vdw_energy:          -35.092628
##########                      Grid_es_energy:           -0.316563
##########           Internal_energy_repulsive:           24.271959

@<TRIPOS>MOLECULE
ZINC000465392830
 62 64 1 0 0
SMALL
USER_CHARGES


@<TRIPOS>ATOM
      1 C1        -14.0576   -1.7274   62.1591 C.3     1  ZINC000465392830    0.0400
      2 O2        -12.7491   -1.1343   62.3704 O.3     1  ZINC000465392830   -0.3600
      3 C3        -12.4945    0.0215   61.7371 C.2     1  ZINC000465392830    0.4600
      4 O4        -13.3372    0.5215   61.0303 O.2     1  ZINC000465392830   -0.4900
      5 C5        -11.1573    0.6953   61.9076 C.3     1  ZINC000465392830    0.1500
      6 H6        -10.9113    1.2629   61.0102 H       1  ZINC000465392830    0.1100
      7 C7        -11.1959    1.6365   63.1299 C.3     1  ZINC000465392830   -0.1100
      8 C8         -9.7908    1.4457   63.7599 C.3     1  ZINC000465392830   -0.0900
      9 H9         -9.0491    2.0648   63.2552 H       1  ZINC000465392830    0.1000
     10 C10        -9.8180    1.7414   65.2608 C.3     1  ZINC000465392830   -0.0800
     11 C11        -8.4180    1.5430   65.8451 C.3     1  ZINC000465392830   -0.1200
     12 C12        -8.4451    1.8387   67.3460 C.3     1  ZINC000465392830   -0.1200
     13 C13        -8.8923    3.2842   67.5730 C.3     1  ZINC000465392830   -0.1200
     14 C14       -10.2923    3.4826   66.9887 C.3     1  ZINC000465392830   -0.1200
     15 C15       -10.2651    3.1869   65.4878 C.3     1  ZINC000465392830   -0.1200
     16 C16        -9.5323   -0.0583   63.4941 C.3     1  ZINC000465392830    0.1000
     17 N17       -10.1181   -0.3133   62.1618 N.am    1  ZINC000465392830   -0.6100
     18 C18        -9.7608   -1.3063   61.3236 C.2     1  ZINC000465392830    0.5400
     19 O19        -8.8856   -2.0832   61.6419 O.2     1  ZINC000465392830   -0.5300
     20 C20       -10.4490   -1.4514   59.9908 C.3     1  ZINC000465392830   -0.1300
     21 C21        -9.4506   -1.9730   58.9553 C.3     1  ZINC000465392830   -0.0600
     22 C22       -10.0876   -1.9549   57.5897 C.ar    1  ZINC000465392830   -0.2000
     23 C23        -9.9937   -0.8340   56.7794 C.ar    1  ZINC000465392830    0.2000
     24 C24        -9.2501    0.3886   57.2523 C.3     1  ZINC000465392830   -0.1100
     25 N25       -10.5641   -0.8506   55.5864 N.ar    1  ZINC000465392830   -0.5000
     26 C26       -11.2194   -1.9224   55.1636 C.ar    1  ZINC000465392830    0.3000
     27 S27       -11.9643   -1.9012   53.5669 S.3     1  ZINC000465392830    0.0000
     28 C28       -11.2747   -3.4263   52.8781 C.3     1  ZINC000465392830   -0.1400
     29 N29       -11.3272   -3.0102   55.9135 N.ar    1  ZINC000465392830   -0.5300
     30 C30       -10.7753   -3.0607   57.1144 C.ar    1  ZINC000465392830    0.2000
     31 C31       -10.9025   -4.3012   57.9606 C.3     1  ZINC000465392830   -0.1100
     32 H32       -14.8291   -1.0340   62.4936 H       1  ZINC000465392830    0.0600
     33 H33       -14.1938   -1.9385   61.0983 H       1  ZINC000465392830    0.0600
     34 H34       -14.1319   -2.6551   62.7266 H       1  ZINC000465392830    0.1000
     35 H35       -11.3407    2.6702   62.8162 H       1  ZINC000465392830    0.1000
     36 H36       -11.9759    1.3311   63.8274 H       1  ZINC000465392830    0.0800
     37 H37       -10.5162    1.0637   65.7521 H       1  ZINC000465392830    0.0800
     38 H38        -8.0994    0.5132   65.6834 H       1  ZINC000465392830    0.0600
     39 H39        -7.7197    2.2207   65.3539 H       1  ZINC000465392830    0.0700
     40 H40        -9.1433    1.1610   67.8373 H       1  ZINC000465392830    0.0600
     41 H41        -7.4477    1.6973   67.7623 H       1  ZINC000465392830    0.0600
     42 H42        -8.9117    3.4948   68.6423 H       1  ZINC000465392830    0.0600
     43 H43        -8.1941    3.9619   67.0818 H       1  ZINC000465392830    0.0600
     44 H44       -10.9905    2.8049   67.4799 H       1  ZINC000465392830    0.0600
     45 H45       -10.6109    4.5125   67.1503 H       1  ZINC000465392830    0.0600
     46 H46        -9.5669    3.8647   64.9965 H       1  ZINC000465392830    0.0700
     47 H47       -11.2626    3.3283   65.0715 H       1  ZINC000465392830    0.0600
     48 H48        -8.4618   -0.2629   63.4816 H       1  ZINC000465392830    0.0900
     49 H49       -10.0272   -0.6677   64.2503 H       1  ZINC000465392830    0.0800
     50 H50       -11.2767   -2.1546   60.0839 H       1  ZINC000465392830    0.1000
     51 H51       -10.8304   -0.4816   59.6713 H       1  ZINC000465392830    0.1000
     52 H52        -8.5653   -1.3372   58.9518 H       1  ZINC000465392830    0.0900
     53 H53        -9.1640   -2.9936   59.2090 H       1  ZINC000465392830    0.0900
     54 H54        -8.2037    0.3144   56.9564 H       1  ZINC000465392830    0.0900
     55 H55        -9.6921    1.2786   56.8042 H       1  ZINC000465392830    0.0900
     56 H56        -9.3167    0.4571   58.3380 H       1  ZINC000465392830    0.0900
     57 H57       -10.1870   -3.3577   52.8603 H       1  ZINC000465392830    0.0900
     58 H58       -11.5753   -4.2725   53.4959 H       1  ZINC000465392830    0.0900
     59 H59       -11.6465   -3.5671   51.8631 H       1  ZINC000465392830    0.1100
     60 H60       -10.0682   -4.9707   57.7515 H       1  ZINC000465392830    0.0900
     61 H61       -10.8910   -4.0245   59.0148 H       1  ZINC000465392830    0.0900
     62 H62       -11.8403   -4.8054   57.7275 H       1  ZINC000465392830    0.0800
@<TRIPOS>BOND
     1     1     2    1
     2     1    32    1
     3     1    33    1
     4     1    34    1
     5     2     3    1
     6     3     4    2
     7     3     5    1
     8     5     6    1
     9     5    17    1
    10     5     7    1
    11     7     8    1
    12     7    35    1
    13     7    36    1
    14     8     9    1
    15     8    10    1
    16     8    16    1
    17    10    15    1
    18    10    11    1
    19    10    37    1
    20    11    12    1
    21    11    38    1
    22    11    39    1
    23    12    13    1
    24    12    40    1
    25    12    41    1
    26    13    14    1
    27    13    42    1
    28    13    43    1
    29    14    15    1
    30    14    44    1
    31    14    45    1
    32    15    46    1
    33    15    47    1
    34    16    17    1
    35    16    48    1
    36    16    49    1
    37    17    18   am
    38    18    19    2
    39    18    20    1
    40    20    21    1
    41    20    50    1
    42    20    51    1
    43    21    22    1
    44    21    52    1
    45    21    53    1
    46    22    30   ar
    47    22    23   ar
    48    23    24    1
    49    23    25   ar
    50    24    54    1
    51    24    55    1
    52    24    56    1
    53    25    26   ar
    54    26    27    1
    55    26    29   ar
    56    27    28    1
    57    28    57    1
    58    28    58    1
    59    28    59    1
    60    29    30   ar
    61    30    31    1
    62    31    60    1
    63    31    61    1
    64    31    62    1
@<TRIPOS>SUBSTRUCTURE
     1 ZINC000465392830        1 TEMP              0 ****  ****    0 ROOT


##########                                Name:    ZINC000011157684
##########                DOCK_Rotatable_Bonds:                   7
##########                         Heavy_Atoms:                  25
##########                    Molecular_Weight:             374.866
##########                DOCK_Rotatable_Bonds:                   7
##########                       Formal_Charge:           0.0400001
##########                     HBond_Acceptors:                   6
##########                        HBond_Donors:                   2
##########                         Heavy_Atoms:                  25
##########                          Grid_Score:          -35.379246
##########                     Grid_vdw_energy:          -34.460979
##########                      Grid_es_energy:           -0.918266
##########           Internal_energy_repulsive:            6.884248

@<TRIPOS>MOLECULE
ZINC000011157684
 41 43 1 0 0
SMALL
USER_CHARGES


@<TRIPOS>ATOM
      1 O1         -9.8114   -5.0075   58.9213 O.2     1  ZINC000011157684   -0.5200
      2 C2         -9.6707   -3.8085   59.0378 C.2     1  ZINC000011157684    0.5100
      3 C3         -8.8529   -3.2528   60.1751 C.3     1  ZINC000011157684    0.1000
      4 N4         -8.9079   -1.7891   60.1467 N.pl3   1  ZINC000011157684   -0.7300
      5 C5         -9.2486   -1.0793   61.3031 C.ar    1  ZINC000011157684    0.2200
      6 C6         -8.5634   -1.3107   62.4879 C.ar    1  ZINC000011157684   -0.1600
      7 C7         -8.9010   -0.6083   63.6288 C.ar    1  ZINC000011157684   -0.0900
      8 C8         -9.9223    0.3256   63.5917 C.ar    1  ZINC000011157684    0.0500
      9 F9        -10.2507    1.0107   64.7088 F       1  ZINC000011157684   -0.1400
     10 C10       -10.6075    0.5590   62.4110 C.ar    1  ZINC000011157684   -0.0900
     11 C11       -10.2699   -0.1372   61.2661 C.ar    1  ZINC000011157684   -0.0900
     12 Cl12      -11.1289    0.1554   59.7862 Cl      1  ZINC000011157684   -0.0500
     13 N13       -10.2410   -2.9732   58.1469 N.am    1  ZINC000011157684   -0.7200
     14 C14       -11.0359   -3.5134   57.0413 C.3     1  ZINC000011157684    0.2600
     15 H15       -10.6417   -4.4877   56.7523 H       1  ZINC000011157684    0.1200
     16 C16       -10.9647   -2.5738   55.8653 C.2     1  ZINC000011157684   -0.1900
     17 C17       -10.8468   -1.2476   55.9466 C.2     1  ZINC000011157684   -0.1200
     18 C18       -10.8004   -0.5905   54.7292 C.2     1  ZINC000011157684   -0.1300
     19 C19       -10.8809   -1.3829   53.6592 C.2     1  ZINC000011157684   -0.2100
     20 S20       -11.0167   -3.0589   54.1754 S.3     1  ZINC000011157684    0.1100
     21 C21       -12.4702   -3.6619   57.4796 C.ar    1  ZINC000011157684   -0.0900
     22 C22       -13.1383   -4.8531   57.2661 C.ar    1  ZINC000011157684   -0.1100
     23 C23       -14.4539   -4.9892   57.6681 C.ar    1  ZINC000011157684   -0.1100
     24 C24       -15.1012   -3.9345   58.2840 C.ar    1  ZINC000011157684   -0.1100
     25 C25       -14.4327   -2.7436   58.4982 C.ar    1  ZINC000011157684   -0.1100
     26 C26       -13.1158   -2.6088   58.1001 C.ar    1  ZINC000011157684   -0.1000
     27 H27        -9.2552   -3.6132   61.1220 H       1  ZINC000011157684    0.1000
     28 H28        -7.8181   -3.5795   60.0722 H       1  ZINC000011157684    0.1000
     29 H29        -8.7082   -1.3121   59.3260 H       1  ZINC000011157684    0.4200
     30 H30        -7.7670   -2.0395   62.5180 H       1  ZINC000011157684    0.1400
     31 H31        -8.3679   -0.7882   64.5506 H       1  ZINC000011157684    0.1400
     32 H32       -11.4037    1.2883   62.3842 H       1  ZINC000011157684    0.1500
     33 H33       -10.1251   -2.0145   58.2379 H       1  ZINC000011157684    0.4000
     34 H34       -10.7920   -0.7262   56.8907 H       1  ZINC000011157684    0.1400
     35 H35       -10.7067    0.4827   54.6516 H       1  ZINC000011157684    0.1400
     36 H36       -10.8616   -1.0472   52.6329 H       1  ZINC000011157684    0.1700
     37 H37       -12.6326   -5.6771   56.7849 H       1  ZINC000011157684    0.1200
     38 H38       -14.9761   -5.9197   57.5007 H       1  ZINC000011157684    0.1300
     39 H39       -16.1293   -4.0407   58.5974 H       1  ZINC000011157684    0.1300
     40 H40       -14.9386   -1.9194   58.9791 H       1  ZINC000011157684    0.1300
     41 H41       -12.5936   -1.6784   58.2676 H       1  ZINC000011157684    0.1300
@<TRIPOS>BOND
     1     1     2    2
     2     2     3    1
     3     2    13   am
     4     3     4    1
     5     3    27    1
     6     3    28    1
     7     4     5    1
     8     4    29    1
     9     5    11   ar
    10     5     6   ar
    11     6     7   ar
    12     6    30    1
    13     7     8   ar
    14     7    31    1
    15     8     9    1
    16     8    10   ar
    17    10    11   ar
    18    10    32    1
    19    11    12    1
    20    13    14    1
    21    13    33    1
    22    14    15    1
    23    14    16    1
    24    14    21    1
    25    16    20    1
    26    16    17    2
    27    17    18    1
    28    17    34    1
    29    18    19    2
    30    18    35    1
    31    19    20    1
    32    19    36    1
    33    21    26   ar
    34    21    22   ar
    35    22    23   ar
    36    22    37    1
    37    23    24   ar
    38    23    38    1
    39    24    25   ar
    40    24    39    1
    41    25    26   ar
    42    25    40    1
    43    26    41    1
@<TRIPOS>SUBSTRUCTURE
     1 ZINC000011157684        1 TEMP              0 ****  ****    0 ROOT


##########                                Name:    ZINC000279452407
##########                DOCK_Rotatable_Bonds:                   6
##########                         Heavy_Atoms:                  24
##########                    Molecular_Weight:              375.47
##########                DOCK_Rotatable_Bonds:                   6
##########                       Formal_Charge:          0.00999929
##########                     HBond_Acceptors:                  10
##########                        HBond_Donors:                   3
##########                         Heavy_Atoms:                  24
##########                          Grid_Score:          -35.348595
##########                     Grid_vdw_energy:          -33.306358
##########                      Grid_es_energy:           -2.042237
##########           Internal_energy_repulsive:           26.641325

@<TRIPOS>MOLECULE
ZINC000279452407
 45 47 1 0 0
SMALL
USER_CHARGES


@<TRIPOS>ATOM
      1 C1        -10.5109   -0.6067   58.0374 C.3     1  ZINC000279452407   -0.1600
      2 C2        -10.2283   -1.9723   57.4079 C.3     1  ZINC000279452407    0.0600
      3 H3         -9.1583   -2.1787   57.4342 H       1  ZINC000279452407    0.0700
      4 O4        -10.6976   -1.9913   56.0477 O.3     1  ZINC000279452407   -0.3700
      5 C5        -11.1695   -3.3304   55.7828 C.3     1  ZINC000279452407    0.0500
      6 C6        -11.8893   -3.7291   57.0976 C.3     1  ZINC000279452407   -0.1400
      7 C7        -10.9908   -3.0668   58.1688 C.3     1  ZINC000279452407    0.0700
      8 C8        -11.8560   -2.4478   59.2636 C.3     1  ZINC000279452407    0.1100
      9 N9        -10.9744   -1.9867   60.3494 N.am    1  ZINC000279452407   -0.6300
     10 C10       -11.0872   -0.7426   60.8553 C.2     1  ZINC000279452407    0.7200
     11 O11       -11.9266    0.0189   60.4152 O.2     1  ZINC000279452407   -0.5800
     12 N12       -10.2695   -0.3426   61.8493 N.am    1  ZINC000279452407   -0.7500
     13 C13       -10.3922    1.0097   62.3991 C.3     1  ZINC000279452407    0.2000
     14 C14        -9.8344    1.0352   63.7990 C.2     1  ZINC000279452407   -0.1700
     15 C15       -10.2977    1.7884   64.7977 C.2     1  ZINC000279452407   -0.1400
     16 C16        -9.6245    1.6433   65.9984 C.2     1  ZINC000279452407    0.0100
     17 C17        -8.6145    0.7723   65.9748 C.2     1  ZINC000279452407   -0.7900
     18 S18        -7.5804    0.3789   67.3462 S.o2    1  ZINC000279452407    2.7300
     19 N19        -7.7550    1.5949   68.4566 N.am    1  ZINC000279452407   -1.2500
     20 O20        -8.1296   -0.7892   67.9407 O.2     1  ZINC000279452407   -0.9600
     21 O21        -6.2422    0.4552   66.8745 O.2     1  ZINC000279452407   -0.9500
     22 S22        -8.4781    0.0707   64.3677 S.3     1  ZINC000279452407    0.2500
     23 C23        -9.9666   -2.9271   60.8650 C.3     1  ZINC000279452407    0.0700
     24 C24        -9.1775   -3.4922   59.6785 C.3     1  ZINC000279452407    0.0400
     25 O25       -10.0919   -4.0240   58.7152 O.3     1  ZINC000279452407   -0.3600
     26 H26       -10.0731   -0.5689   59.0349 H       1  ZINC000279452407    0.0700
     27 H27       -10.0730    0.1764   57.4185 H       1  ZINC000279452407    0.0600
     28 H28       -11.5880   -0.4548   58.1074 H       1  ZINC000279452407    0.0800
     29 H29       -11.8690   -3.3322   54.9468 H       1  ZINC000279452407    0.1000
     30 H30       -10.3325   -4.0001   55.5854 H       1  ZINC000279452407    0.0700
     31 H31       -12.8995   -3.3207   57.1278 H       1  ZINC000279452407    0.1000
     32 H32       -11.9048   -4.8120   57.2200 H       1  ZINC000279452407    0.1000
     33 H33       -12.4106   -1.6017   58.8579 H       1  ZINC000279452407    0.1200
     34 H34       -12.5505   -3.1947   59.6479 H       1  ZINC000279452407    0.0800
     35 H35        -9.5997   -0.9501   62.2004 H       1  ZINC000279452407    0.4000
     36 H36        -9.8362    1.7081   61.7738 H       1  ZINC000279452407    0.1000
     37 H37       -11.4428    1.2990   62.4213 H       1  ZINC000279452407    0.0900
     38 H38       -11.1344    2.4608   64.6784 H       1  ZINC000279452407    0.1600
     39 H39        -9.8961    2.1941   66.8869 H       1  ZINC000279452407    0.1600
     40 H40        -7.5296    2.5072   68.2162 H       1  ZINC000279452407    0.4200
     41 H41        -8.0825    1.3948   69.3475 H       1  ZINC000279452407    0.4200
     42 H42        -9.2890   -2.4041   61.5399 H       1  ZINC000279452407    0.0900
     43 H43       -10.4620   -3.7399   61.3960 H       1  ZINC000279452407    0.0900
     44 H44        -8.5885   -2.6972   59.2213 H       1  ZINC000279452407    0.0600
     45 H45        -8.5140   -4.2839   60.0265 H       1  ZINC000279452407    0.1100
@<TRIPOS>BOND
     1     1     2    1
     2     1    26    1
     3     1    27    1
     4     1    28    1
     5     2     3    1
     6     2     7    1
     7     2     4    1
     8     4     5    1
     9     5     6    1
    10     5    29    1
    11     5    30    1
    12     6     7    1
    13     6    31    1
    14     6    32    1
    15     7    25    1
    16     7     8    1
    17     8     9    1
    18     8    33    1
    19     8    34    1
    20     9    10   am
    21     9    23    1
    22    10    11    2
    23    10    12   am
    24    12    13    1
    25    12    35    1
    26    13    14    1
    27    13    36    1
    28    13    37    1
    29    14    22    1
    30    14    15    2
    31    15    16    1
    32    15    38    1
    33    16    17    2
    34    16    39    1
    35    17    18    1
    36    17    22    1
    37    18    19   am
    38    18    20    2
    39    18    21    2
    40    19    40    1
    41    19    41    1
    42    23    24    1
    43    23    42    1
    44    23    43    1
    45    24    25    1
    46    24    44    1
    47    24    45    1
@<TRIPOS>SUBSTRUCTURE
     1 ZINC000279452407        1 TEMP              0 ****  ****    0 ROOT


##########                                Name:    ZINC000840464592
##########                DOCK_Rotatable_Bonds:                  10
##########                         Heavy_Atoms:                  26
##########                    Molecular_Weight:             360.497
##########                DOCK_Rotatable_Bonds:                  10
##########                       Formal_Charge:          -0.0399996
##########                     HBond_Acceptors:                   5
##########                        HBond_Donors:                   1
##########                         Heavy_Atoms:                  26
##########                          Grid_Score:          -35.339481
##########                     Grid_vdw_energy:          -34.272743
##########                      Grid_es_energy:           -1.066738
##########           Internal_energy_repulsive:           80.743942

@<TRIPOS>MOLECULE
ZINC000840464592
 58 59 1 0 0
SMALL
USER_CHARGES


@<TRIPOS>ATOM
      1 C1         -9.1979   -1.0511   61.7662 C.3     1  ZINC000840464592   -0.1500
      2 C2         -9.2777   -1.6055   60.3424 C.3     1  ZINC000840464592   -0.1300
      3 C3         -9.4593   -3.1237   60.3956 C.3     1  ZINC000840464592   -0.1200
      4 C4         -9.6400   -3.6659   58.9763 C.3     1  ZINC000840464592   -0.1200
      5 C5        -10.9724   -3.1735   58.4081 C.3     1  ZINC000840464592   -0.1200
      6 C6        -11.2774   -3.9167   57.1059 C.3     1  ZINC000840464592    0.0600
      7 O7        -12.4905   -3.4134   56.5430 O.3     1  ZINC000840464592   -0.3600
      8 C8        -12.9416   -4.1345   55.3947 C.3     1  ZINC000840464592    0.0800
      9 H9        -12.0973   -4.3293   54.7333 H       1  ZINC000840464592    0.0800
     10 C10       -13.5601   -5.4623   55.8368 C.3     1  ZINC000840464592   -0.1800
     11 C11       -13.9752   -3.3179   54.6627 C.2     1  ZINC000840464592    0.5200
     12 O12       -15.1534   -3.5754   54.7908 O.2     1  ZINC000840464592   -0.5000
     13 N13       -13.5903   -2.3015   53.8657 N.am    1  ZINC000840464592   -0.6000
     14 C14       -14.5958   -1.5128   53.1582 C.3     1  ZINC000840464592    0.0900
     15 C15       -14.4467   -1.6435   51.6466 C.3     1  ZINC000840464592   -0.1600
     16 C16       -13.0905   -1.0926   51.2005 C.3     1  ZINC000840464592    0.0800
     17 N17       -12.0948   -2.1686   51.2550 N.am    1  ZINC000840464592   -0.7200
     18 C18       -11.6629   -2.6342   52.4378 C.2     1  ZINC000840464592    0.5100
     19 O19       -10.8788   -3.5584   52.4832 O.2     1  ZINC000840464592   -0.5200
     20 C20       -12.1647   -1.9898   53.7186 C.3     1  ZINC000840464592    0.1400
     21 H21       -11.6121   -2.3884   54.5693 H       1  ZINC000840464592    0.1300
     22 C22       -11.9667   -0.4746   53.6424 C.3     1  ZINC000840464592   -0.1000
     23 C23       -11.2598    0.0027   54.8847 C.ar    1  ZINC000840464592   -0.0900
     24 C24       -11.9914    0.3655   56.0001 C.ar    1  ZINC000840464592   -0.1100
     25 C25       -11.3431    0.8033   57.1397 C.ar    1  ZINC000840464592   -0.1200
     26 C26        -9.9630    0.8780   57.1641 C.ar    1  ZINC000840464592   -0.1200
     27 C27        -9.2313    0.5143   56.0491 C.ar    1  ZINC000840464592   -0.1200
     28 C28        -9.8795    0.0725   54.9110 C.ar    1  ZINC000840464592   -0.1100
     29 H29        -8.3506   -1.5004   62.2840 H       1  ZINC000840464592    0.0500
     30 H30        -9.0685    0.0305   61.7282 H       1  ZINC000840464592    0.0500
     31 H31       -10.1177   -1.2885   62.3005 H       1  ZINC000840464592    0.0500
     32 H32       -10.1251   -1.1561   59.8245 H       1  ZINC000840464592    0.0600
     33 H33        -8.3578   -1.3681   59.8079 H       1  ZINC000840464592    0.0600
     34 H34        -8.5790   -3.5793   60.8492 H       1  ZINC000840464592    0.0600
     35 H35       -10.3402   -3.3636   60.9910 H       1  ZINC000840464592    0.0600
     36 H36        -8.8237   -3.3131   58.3460 H       1  ZINC000840464592    0.0600
     37 H37        -9.6356   -4.7556   59.0003 H       1  ZINC000840464592    0.0600
     38 H38       -11.7674   -3.3633   59.1294 H       1  ZINC000840464592    0.0700
     39 H39       -10.9097   -2.1037   58.2096 H       1  ZINC000840464592    0.0700
     40 H40       -10.4597   -3.7654   56.4013 H       1  ZINC000840464592    0.0500
     41 H41       -11.3869   -4.9814   57.3123 H       1  ZINC000840464592    0.0500
     42 H42       -13.9679   -5.9800   54.9686 H       1  ZINC000840464592    0.0800
     43 H43       -12.7944   -6.0823   56.3032 H       1  ZINC000840464592    0.0700
     44 H44       -14.3585   -5.2703   56.5535 H       1  ZINC000840464592    0.0800
     45 H45       -15.5882   -1.8571   53.4493 H       1  ZINC000840464592    0.1000
     46 H46       -14.4876   -0.4648   53.4374 H       1  ZINC000840464592    0.0800
     47 H47       -14.5200   -2.6942   51.3659 H       1  ZINC000840464592    0.0800
     48 H48       -15.2430   -1.0842   51.1554 H       1  ZINC000840464592    0.1000
     49 H49       -13.1670   -0.7183   50.1796 H       1  ZINC000840464592    0.0900
     50 H50       -12.7893   -0.2831   51.8653 H       1  ZINC000840464592    0.1000
     51 H51       -11.7467   -2.5459   50.4320 H       1  ZINC000840464592    0.4000
     52 H52       -11.3663   -0.2301   52.7661 H       1  ZINC000840464592    0.0900
     53 H53       -12.9374    0.0153   53.5657 H       1  ZINC000840464592    0.1000
     54 H54       -13.0698    0.3073   55.9810 H       1  ZINC000840464592    0.1200
     55 H55       -11.9148    1.0874   58.0108 H       1  ZINC000840464592    0.1200
     56 H56        -9.4563    1.2207   58.0543 H       1  ZINC000840464592    0.1200
     57 H57        -8.1530    0.5730   56.0681 H       1  ZINC000840464592    0.1200
     58 H58        -9.3078   -0.2116   54.0398 H       1  ZINC000840464592    0.1200
@<TRIPOS>BOND
     1     1     2    1
     2     1    29    1
     3     1    30    1
     4     1    31    1
     5     2     3    1
     6     2    32    1
     7     2    33    1
     8     3     4    1
     9     3    34    1
    10     3    35    1
    11     4     5    1
    12     4    36    1
    13     4    37    1
    14     5     6    1
    15     5    38    1
    16     5    39    1
    17     6     7    1
    18     6    40    1
    19     6    41    1
    20     7     8    1
    21     8     9    1
    22     8    10    1
    23     8    11    1
    24    10    42    1
    25    10    43    1
    26    10    44    1
    27    11    12    2
    28    11    13   am
    29    13    20    1
    30    13    14    1
    31    14    15    1
    32    14    45    1
    33    14    46    1
    34    15    16    1
    35    15    47    1
    36    15    48    1
    37    16    17    1
    38    16    49    1
    39    16    50    1
    40    17    18   am
    41    17    51    1
    42    18    19    2
    43    18    20    1
    44    20    21    1
    45    20    22    1
    46    22    23    1
    47    22    52    1
    48    22    53    1
    49    23    28   ar
    50    23    24   ar
    51    24    25   ar
    52    24    54    1
    53    25    26   ar
    54    25    55    1
    55    26    27   ar
    56    26    56    1
    57    27    28   ar
    58    27    57    1
    59    28    58    1
@<TRIPOS>SUBSTRUCTURE
     1 ZINC000840464592        1 TEMP              0 ****  ****    0 ROOT


##########                                Name:    ZINC000762020937
##########                DOCK_Rotatable_Bonds:                  10
##########                         Heavy_Atoms:                  28
##########                    Molecular_Weight:             391.467
##########                DOCK_Rotatable_Bonds:                  10
##########                       Formal_Charge:         -1.8999e-07
##########                     HBond_Acceptors:                   8
##########                        HBond_Donors:                   1
##########                         Heavy_Atoms:                  28
##########                          Grid_Score:          -35.298218
##########                     Grid_vdw_energy:          -34.691929
##########                      Grid_es_energy:           -0.606289
##########           Internal_energy_repulsive:           39.891235

@<TRIPOS>MOLECULE
ZINC000762020937
 57 58 1 0 0
SMALL
USER_CHARGES


@<TRIPOS>ATOM
      1 C1        -12.0165   -3.4759   53.2084 C.3     1  ZINC000762020937    0.0200
      2 O2        -12.6211   -3.0568   54.4335 O.3     1  ZINC000762020937   -0.3000
      3 C3        -11.8989   -3.2368   55.5716 C.ar    1  ZINC000762020937    0.1100
      4 C4        -10.9583   -2.2943   55.9534 C.ar    1  ZINC000762020937   -0.1700
      5 C5        -10.2250   -2.4788   57.1112 C.ar    1  ZINC000762020937   -0.1000
      6 C6        -10.4280   -3.6026   57.8897 C.ar    1  ZINC000762020937   -0.1000
      7 C7         -9.6259   -3.7988   59.1503 C.3     1  ZINC000762020937    0.0200
      8 C8         -9.7065   -2.5541   59.9959 C.2     1  ZINC000762020937    0.1900
      9 N9        -10.7020   -1.7016   60.0380 N.2     1  ZINC000762020937   -0.4700
     10 C10       -10.3340   -0.7586   60.9234 C.2     1  ZINC000762020937    0.1600
     11 C11       -11.1406    0.4484   61.3278 C.3     1  ZINC000762020937    0.2600
     12 H12       -11.9761    0.1342   61.9535 H       1  ZINC000762020937    0.1200
     13 N13       -10.2898    1.3750   62.0787 N.am    1  ZINC000762020937   -0.7100
     14 C14       -10.0783    1.1793   63.3954 C.2     1  ZINC000762020937    0.6600
     15 O15       -10.5921    0.2335   63.9593 O.2     1  ZINC000762020937   -0.5600
     16 O16        -9.2977    2.0318   64.0858 O.3     1  ZINC000762020937   -0.3600
     17 C17        -8.9227    1.6389   65.4324 C.3     1  ZINC000762020937    0.1400
     18 C18       -10.1729    1.5752   66.3120 C.3     1  ZINC000762020937   -0.1800
     19 C19        -8.2549    0.2628   65.3948 C.3     1  ZINC000762020937   -0.1400
     20 C20        -7.9449    2.6646   66.0094 C.3     1  ZINC000762020937   -0.1800
     21 C21       -11.6753    1.1473   60.0763 C.3     1  ZINC000762020937   -0.1000
     22 C22       -12.6392    2.2621   60.4872 C.3     1  ZINC000762020937   -0.1400
     23 C23       -10.5084    1.7465   59.2888 C.3     1  ZINC000762020937   -0.1400
     24 N24        -9.1554   -1.0796   61.3666 N.2     1  ZINC000762020937   -0.3700
     25 O25        -8.7794   -2.1109   60.8504 O.3     1  ZINC000762020937    0.0900
     26 C26       -11.3658   -4.5471   57.5146 C.ar    1  ZINC000762020937   -0.1500
     27 C27       -12.1074   -4.3659   56.3586 C.ar    1  ZINC000762020937    0.1000
     28 O28       -13.0299   -5.2938   55.9883 O.3     1  ZINC000762020937   -0.3100
     29 C29       -14.1927   -5.4164   56.8100 C.3     1  ZINC000762020937    0.0200
     30 H30       -11.0871   -2.9272   53.0555 H       1  ZINC000762020937    0.0600
     31 H31       -11.8043   -4.5441   53.2547 H       1  ZINC000762020937    0.0600
     32 H32       -12.6968   -3.2762   52.3805 H       1  ZINC000762020937    0.1000
     33 H33       -10.7972   -1.4156   55.3465 H       1  ZINC000762020937    0.1400
     34 H34        -9.4920   -1.7431   57.4077 H       1  ZINC000762020937    0.1300
     35 H35       -10.0280   -4.6441   59.7088 H       1  ZINC000762020937    0.1200
     36 H36        -8.5854   -3.9958   58.8919 H       1  ZINC000762020937    0.1200
     37 H37        -9.8787    2.1293   61.6284 H       1  ZINC000762020937    0.4100
     38 H38       -10.8695    0.8445   65.9010 H       1  ZINC000762020937    0.0600
     39 H39        -9.8914    1.2803   67.3228 H       1  ZINC000762020937    0.0700
     40 H40       -10.6486    2.5555   66.3387 H       1  ZINC000762020937    0.0900
     41 H41        -7.3642    0.3081   64.7682 H       1  ZINC000762020937    0.0700
     42 H42        -7.9734   -0.0322   66.4057 H       1  ZINC000762020937    0.0800
     43 H43        -8.9515   -0.4679   64.9838 H       1  ZINC000762020937    0.0700
     44 H44        -8.4206    3.6450   66.0361 H       1  ZINC000762020937    0.0900
     45 H45        -7.6634    2.3696   67.0202 H       1  ZINC000762020937    0.0700
     46 H46        -7.0542    2.7099   65.3827 H       1  ZINC000762020937    0.0600
     47 H47       -12.2010    0.4240   59.4528 H       1  ZINC000762020937    0.0800
     48 H48       -12.1136    2.9854   61.1106 H       1  ZINC000762020937    0.0600
     49 H49       -13.0202    2.7601   59.5955 H       1  ZINC000762020937    0.0600
     50 H50       -13.4705    1.8352   61.0482 H       1  ZINC000762020937    0.0500
     51 H51        -9.8217    0.9522   58.9961 H       1  ZINC000762020937    0.0500
     52 H52       -10.8893    2.2444   58.3971 H       1  ZINC000762020937    0.0600
     53 H53        -9.9827    2.4697   59.9123 H       1  ZINC000762020937    0.0700
     54 H54       -11.5224   -5.4244   58.1247 H       1  ZINC000762020937    0.1400
     55 H55       -14.7253   -4.4656   56.8301 H       1  ZINC000762020937    0.0600
     56 H56       -14.8448   -6.1896   56.4038 H       1  ZINC000762020937    0.1000
     57 H57       -13.8949   -5.6875   57.8229 H       1  ZINC000762020937    0.0600
@<TRIPOS>BOND
     1     1     2    1
     2     1    30    1
     3     1    31    1
     4     1    32    1
     5     2     3    1
     6     3    27   ar
     7     3     4   ar
     8     4     5   ar
     9     4    33    1
    10     5     6   ar
    11     5    34    1
    12     6     7    1
    13     6    26   ar
    14     7     8    1
    15     7    35    1
    16     7    36    1
    17     8    25    1
    18     8     9    2
    19     9    10    1
    20    10    11    1
    21    10    24    2
    22    11    12    1
    23    11    13    1
    24    11    21    1
    25    13    14   am
    26    13    37    1
    27    14    15    2
    28    14    16    1
    29    16    17    1
    30    17    18    1
    31    17    19    1
    32    17    20    1
    33    18    38    1
    34    18    39    1
    35    18    40    1
    36    19    41    1
    37    19    42    1
    38    19    43    1
    39    20    44    1
    40    20    45    1
    41    20    46    1
    42    21    22    1
    43    21    23    1
    44    21    47    1
    45    22    48    1
    46    22    49    1
    47    22    50    1
    48    23    51    1
    49    23    52    1
    50    23    53    1
    51    24    25    1
    52    26    27   ar
    53    26    54    1
    54    27    28    1
    55    28    29    1
    56    29    55    1
    57    29    56    1
    58    29    57    1
@<TRIPOS>SUBSTRUCTURE
     1 ZINC000762020937        1 TEMP              0 ****  ****    0 ROOT


##########                                Name:    ZINC000541000201
##########                DOCK_Rotatable_Bonds:                  10
##########                         Heavy_Atoms:                  30
##########                    Molecular_Weight:             420.413
##########                DOCK_Rotatable_Bonds:                  10
##########                       Formal_Charge:               -0.03
##########                     HBond_Acceptors:                   9
##########                        HBond_Donors:                   1
##########                         Heavy_Atoms:                  30
##########                          Grid_Score:          -35.291809
##########                     Grid_vdw_energy:          -34.620502
##########                      Grid_es_energy:           -0.671306
##########           Internal_energy_repulsive:           71.783470

@<TRIPOS>MOLECULE
ZINC000541000201
 52 54 1 0 0
SMALL
USER_CHARGES


@<TRIPOS>ATOM
      1 C1        -14.9813   -4.1969   58.8886 C.3     1  ZINC000541000201    0.0400
      2 O2        -14.8006   -5.1954   57.8500 O.3     1  ZINC000541000201   -0.3500
      3 C3        -14.2077   -4.7935   56.7147 C.2     1  ZINC000541000201    0.4500
      4 O4        -14.0942   -5.5606   55.7881 O.2     1  ZINC000541000201   -0.4900
      5 C5        -13.6835   -3.3857   56.5961 C.3     1  ZINC000541000201    0.2100
      6 H6        -14.4079   -2.6912   57.0216 H       1  ZINC000541000201    0.1400
      7 N7        -13.4684   -3.0621   55.1835 N.am    1  ZINC000541000201   -0.7100
      8 C8        -14.5224   -2.8162   54.3804 C.2     1  ZINC000541000201    0.5800
      9 O9        -15.6517   -2.8612   54.8285 O.2     1  ZINC000541000201   -0.5300
     10 C10       -14.3057   -2.4920   52.9567 C.ar    1  ZINC000541000201   -0.2300
     11 C11       -13.0114   -2.2611   52.4683 C.ar    1  ZINC000541000201    0.0200
     12 C12       -12.8598   -1.9612   51.1298 C.ar    1  ZINC000541000201   -0.2000
     13 C13       -13.9858   -1.8983   50.3151 C.ar    1  ZINC000541000201    0.3500
     14 O14       -13.8429   -1.6044   49.0001 O.3     1  ZINC000541000201   -0.2900
     15 C15       -15.0327   -1.5741   48.2091 C.3     1  ZINC000541000201    0.0800
     16 C16       -15.8056   -2.9099   48.3414 C.3     1  ZINC000541000201   -0.1400
     17 C17       -17.2545   -2.5042   47.9732 C.3     1  ZINC000541000201   -0.1200
     18 C18       -17.4267   -1.1053   48.6003 C.3     1  ZINC000541000201   -0.1200
     19 C19       -16.0140   -0.5140   48.7503 C.3     1  ZINC000541000201   -0.1200
     20 N20       -15.1952   -2.1219   50.8062 N.ar    1  ZINC000541000201   -0.5400
     21 C21       -15.3851   -2.4162   52.0752 C.ar    1  ZINC000541000201    0.1800
     22 C22       -12.3792   -3.2706   57.3421 C.ar    1  ZINC000541000201   -0.1300
     23 C23       -12.0354   -2.0778   57.9511 C.ar    1  ZINC000541000201   -0.0700
     24 C24       -10.8403   -1.9698   58.6355 C.ar    1  ZINC000541000201   -0.1300
     25 C25        -9.9850   -3.0595   58.7119 C.ar    1  ZINC000541000201    0.1200
     26 O26        -8.8090   -2.9557   59.3850 O.3     1  ZINC000541000201   -0.3200
     27 C27        -8.8858   -2.7274   60.7935 C.3     1  ZINC000541000201    0.4100
     28 F28        -9.0015   -1.3548   61.0379 F       1  ZINC000541000201   -0.2000
     29 F29       -10.0034   -3.3894   61.3131 F       1  ZINC000541000201   -0.2000
     30 C30       -10.3326   -4.2552   58.1003 C.ar    1  ZINC000541000201   -0.1900
     31 C31       -11.5310   -4.3595   57.4211 C.ar    1  ZINC000541000201   -0.0500
     32 H32       -15.4709   -4.6524   59.7493 H       1  ZINC000541000201    0.1000
     33 H33       -14.0094   -3.8048   59.1887 H       1  ZINC000541000201    0.0600
     34 H34       -15.5991   -3.3838   58.5074 H       1  ZINC000541000201    0.0600
     35 H35       -12.5673   -3.0250   54.8262 H       1  ZINC000541000201    0.4100
     36 H36       -12.1547   -2.3161   53.1235 H       1  ZINC000541000201    0.1600
     37 H37       -11.8779   -1.7772   50.7194 H       1  ZINC000541000201    0.1500
     38 H38       -14.7909   -1.3727   47.1656 H       1  ZINC000541000201    0.1000
     39 H39       -15.4214   -3.6496   47.6392 H       1  ZINC000541000201    0.0700
     40 H40       -15.7574   -3.2845   49.3638 H       1  ZINC000541000201    0.0800
     41 H41       -17.3733   -2.4543   46.8908 H       1  ZINC000541000201    0.0700
     42 H42       -17.9684   -3.2060   48.4044 H       1  ZINC000541000201    0.0700
     43 H43       -18.0281   -0.4742   47.9460 H       1  ZINC000541000201    0.0700
     44 H44       -17.9016   -1.1902   49.5777 H       1  ZINC000541000201    0.0700
     45 H45       -15.8034   -0.3118   49.8005 H       1  ZINC000541000201    0.0800
     46 H46       -15.9299    0.4041   48.1688 H       1  ZINC000541000201    0.0700
     47 H47       -16.3864   -2.5925   52.4393 H       1  ZINC000541000201    0.1600
     48 H48       -12.7016   -1.2299   57.8915 H       1  ZINC000541000201    0.1300
     49 H49       -10.5719   -1.0377   59.1105 H       1  ZINC000541000201    0.1400
     50 H50        -7.9833   -3.1069   61.2729 H       1  ZINC000541000201    0.1900
     51 H51        -9.6682   -5.1048   58.1580 H       1  ZINC000541000201    0.1400
     52 H52       -11.8021   -5.2903   56.9452 H       1  ZINC000541000201    0.1400
@<TRIPOS>BOND
     1     1     2    1
     2     1    32    1
     3     1    33    1
     4     1    34    1
     5     2     3    1
     6     3     4    2
     7     3     5    1
     8     5     6    1
     9     5     7    1
    10     5    22    1
    11     7     8   am
    12     7    35    1
    13     8     9    2
    14     8    10    1
    15    10    21   ar
    16    10    11   ar
    17    11    12   ar
    18    11    36    1
    19    12    13   ar
    20    12    37    1
    21    13    14    1
    22    13    20   ar
    23    14    15    1
    24    15    19    1
    25    15    16    1
    26    15    38    1
    27    16    17    1
    28    16    39    1
    29    16    40    1
    30    17    18    1
    31    17    41    1
    32    17    42    1
    33    18    19    1
    34    18    43    1
    35    18    44    1
    36    19    45    1
    37    19    46    1
    38    20    21   ar
    39    21    47    1
    40    22    31   ar
    41    22    23   ar
    42    23    24   ar
    43    23    48    1
    44    24    25   ar
    45    24    49    1
    46    25    26    1
    47    25    30   ar
    48    26    27    1
    49    27    28    1
    50    27    29    1
    51    27    50    1
    52    30    31   ar
    53    30    51    1
    54    31    52    1
@<TRIPOS>SUBSTRUCTURE
     1 ZINC000541000201        1 TEMP              0 ****  ****    0 ROOT


##########                                Name:    ZINC000906038034
##########                DOCK_Rotatable_Bonds:                   5
##########                         Heavy_Atoms:                  23
##########                    Molecular_Weight:             387.428
##########                DOCK_Rotatable_Bonds:                   5
##########                       Formal_Charge:         -0.00999987
##########                     HBond_Acceptors:                  12
##########                        HBond_Donors:                   0
##########                         Heavy_Atoms:                  23
##########                          Grid_Score:          -35.282364
##########                     Grid_vdw_energy:          -35.677235
##########                      Grid_es_energy:            0.394872
##########           Internal_energy_repulsive:            5.729612

@<TRIPOS>MOLECULE
ZINC000906038034
 35 36 1 0 0
SMALL
USER_CHARGES


@<TRIPOS>ATOM
      1 C1         -7.3275    0.4400   51.2619 C.3     1  ZINC000906038034    0.1000
      2 N2         -8.3767    0.0442   52.2047 N.pl3   1  ZINC000906038034   -0.3700
      3 C3         -8.7937    0.7593   53.2719 C.2     1  ZINC000906038034    0.0600
      4 C4         -9.7709    0.0599   53.8876 C.2     1  ZINC000906038034   -0.2500
      5 C5         -9.9639   -1.1377   53.1683 C.2     1  ZINC000906038034    0.1200
      6 C6        -10.9394   -2.2008   53.4932 C.2     1  ZINC000906038034    0.1500
      7 N7        -11.8140   -2.1551   54.4569 N.2     1  ZINC000906038034   -0.4300
      8 C8        -12.6029   -3.1962   54.5969 C.2     1  ZINC000906038034    0.0600
      9 C9        -13.6554   -3.2636   55.6733 C.3     1  ZINC000906038034   -0.5300
     10 S10       -13.2863   -4.6410   56.7945 S.o2    1  ZINC000906038034    2.4200
     11 O11       -14.0557   -4.4799   57.9782 O.2     1  ZINC000906038034   -0.9100
     12 O12       -13.3817   -5.8566   56.0650 O.2     1  ZINC000906038034   -0.9200
     13 C13       -11.5422   -4.3421   57.1938 C.3     1  ZINC000906038034   -0.6100
     14 C14       -11.4240   -3.0796   58.0499 C.3     1  ZINC000906038034   -0.4500
     15 S15        -9.8009   -3.0476   58.8594 S.o     1  ZINC000906038034    1.3300
     16 O16        -9.6938   -4.1501   59.7495 O.2     1  ZINC000906038034   -0.7600
     17 C17        -9.8503   -1.5045   59.8117 C.3     1  ZINC000906038034    0.1200
     18 F18       -10.9068   -1.5549   60.7273 F       1  ZINC000906038034   -0.1900
     19 F19        -8.6434   -1.3429   60.5007 F       1  ZINC000906038034   -0.1700
     20 F20       -10.0384   -0.4253   58.9414 F       1  ZINC000906038034   -0.1600
     21 C21       -12.4143   -4.1917   53.7252 C.2     1  ZINC000906038034   -0.2300
     22 S22       -11.1098   -3.7293   52.6339 S.3     1  ZINC000906038034    0.1600
     23 N23        -9.1250   -1.1387   52.1518 N.2     1  ZINC000906038034   -0.2400
     24 H24        -7.7698    1.0084   50.4437 H       1  ZINC000906038034    0.0800
     25 H25        -6.5907    1.0570   51.7763 H       1  ZINC000906038034    0.0900
     26 H26        -6.8413   -0.4509   50.8643 H       1  ZINC000906038034    0.0900
     27 H27        -8.4121    1.7218   53.5793 H       1  ZINC000906038034    0.1800
     28 H28       -10.3087    0.3633   54.7736 H       1  ZINC000906038034    0.1600
     29 H29       -13.6613   -2.3295   56.2348 H       1  ZINC000906038034    0.1500
     30 H30       -14.6328   -3.4190   55.2165 H       1  ZINC000906038034    0.1600
     31 H31       -11.1446   -5.1939   57.7457 H       1  ZINC000906038034    0.1500
     32 H32       -10.9758   -4.2103   56.2719 H       1  ZINC000906038034    0.1500
     33 H33       -11.5312   -2.1994   57.4160 H       1  ZINC000906038034    0.1600
     34 H34       -12.2079   -3.0795   58.8073 H       1  ZINC000906038034    0.1300
     35 H35       -12.9687   -5.1180   53.6925 H       1  ZINC000906038034    0.1900
@<TRIPOS>BOND
     1     1     2    1
     2     1    24    1
     3     1    25    1
     4     1    26    1
     5     2    23    1
     6     2     3    1
     7     3     4    2
     8     3    27    1
     9     4     5    1
    10     4    28    1
    11     5     6    1
    12     5    23    2
    13     6    22    1
    14     6     7    2
    15     7     8    1
    16     8     9    1
    17     8    21    2
    18     9    10    1
    19     9    29    1
    20     9    30    1
    21    10    11    2
    22    10    12    2
    23    10    13    1
    24    13    14    1
    25    13    31    1
    26    13    32    1
    27    14    15    1
    28    14    33    1
    29    14    34    1
    30    15    16    2
    31    15    17    1
    32    17    18    1
    33    17    19    1
    34    17    20    1
    35    21    22    1
    36    21    35    1
@<TRIPOS>SUBSTRUCTURE
     1 ZINC000906038034        1 TEMP              0 ****  ****    0 ROOT


##########                                Name:    ZINC001327099466
##########                DOCK_Rotatable_Bonds:                   7
##########                         Heavy_Atoms:                  27
##########                    Molecular_Weight:             374.483
##########                DOCK_Rotatable_Bonds:                   7
##########                       Formal_Charge:           0.0199998
##########                     HBond_Acceptors:                   7
##########                        HBond_Donors:                   1
##########                         Heavy_Atoms:                  27
##########                          Grid_Score:          -35.271309
##########                     Grid_vdw_energy:          -35.597744
##########                      Grid_es_energy:            0.326434
##########           Internal_energy_repulsive:           18.513210

@<TRIPOS>MOLECULE
ZINC001327099466
 57 60 1 0 0
SMALL
USER_CHARGES


@<TRIPOS>ATOM
      1 O1        -11.1243   -0.4797   53.5609 O.2     1  ZINC001327099466   -0.4800
      2 C2        -11.0184   -1.5469   52.9922 C.2     1  ZINC001327099466    0.5300
      3 N3         -9.9140   -1.8186   52.2690 N.am    1  ZINC001327099466   -0.6000
      4 C4         -8.8920   -0.8681   52.1690 C.2     1  ZINC001327099466    0.2900
      5 N5         -8.8885    0.3218   52.7234 N.2     1  ZINC001327099466   -0.3100
      6 N6         -7.6882    0.9586   52.3829 N.pl3   1  ZINC001327099466   -0.3500
      7 C7         -7.2806    2.3039   52.7955 C.3     1  ZINC001327099466    0.1700
      8 C8         -7.7642    3.3229   51.7617 C.3     1  ZINC001327099466   -0.1300
      9 C9         -7.3387    4.7279   52.1927 C.3     1  ZINC001327099466   -0.1200
     10 C10        -7.9547    5.0520   53.5551 C.3     1  ZINC001327099466   -0.1300
     11 C11        -7.4712    4.0330   54.5889 C.3     1  ZINC001327099466   -0.1200
     12 C12        -7.8968    2.6280   54.1580 C.3     1  ZINC001327099466   -0.1300
     13 C13        -6.9724    0.1158   51.6086 C.2     1  ZINC001327099466    0.0700
     14 C14        -7.6875   -1.0225   51.4631 C.2     1  ZINC001327099466   -0.2700
     15 C15       -12.1092   -2.5613   53.0989 C.2     1  ZINC001327099466    0.5100
     16 O16       -12.9848   -2.6015   52.2595 O.2     1  ZINC001327099466   -0.5100
     17 N17       -12.1214   -3.4322   54.1275 N.am    1  ZINC001327099466   -0.5700
     18 C18       -13.1880   -4.4358   54.2459 C.3     1  ZINC001327099466    0.0400
     19 C19       -13.8215   -4.3205   55.6360 C.3     1  ZINC001327099466   -0.1300
     20 C20       -12.7288   -4.4357   56.7013 C.3     1  ZINC001327099466   -0.1200
     21 C21       -11.7256   -3.2926   56.5313 C.3     1  ZINC001327099466    0.0800
     22 H22       -12.2444   -2.3377   56.6163 H       1  ZINC001327099466    0.0700
     23 O23       -10.7232   -3.3827   57.5458 O.3     1  ZINC001327099466   -0.3500
     24 C24       -11.0990   -2.7864   58.7888 C.3     1  ZINC001327099466    0.0600
     25 C25       -10.0621   -2.9872   59.9067 C.3     1  ZINC001327099466   -0.1600
     26 C26        -9.4024   -1.6858   59.4207 C.3     1  ZINC001327099466   -0.1400
     27 C27       -10.7817   -1.2840   58.8721 C.3     1  ZINC001327099466   -0.1400
     28 C28       -11.0653   -3.3998   55.1484 C.3     1  ZINC001327099466    0.0900
     29 H29        -9.8276   -2.6729   51.8179 H       1  ZINC001327099466    0.4300
     30 H30        -6.1940    2.3481   52.8684 H       1  ZINC001327099466    0.1000
     31 H31        -7.3253    3.0920   50.7911 H       1  ZINC001327099466    0.0700
     32 H32        -8.8509    3.2788   51.6889 H       1  ZINC001327099466    0.0700
     33 H33        -6.2520    4.7720   52.2656 H       1  ZINC001327099466    0.0700
     34 H34        -7.6832    5.4538   51.4562 H       1  ZINC001327099466    0.0700
     35 H35        -7.6516    6.0529   53.8622 H       1  ZINC001327099466    0.0700
     36 H36        -9.0415    5.0078   53.4822 H       1  ZINC001327099466    0.0700
     37 H37        -6.3845    4.0772   54.6619 H       1  ZINC001327099466    0.0700
     38 H38        -7.9102    4.2639   55.5596 H       1  ZINC001327099466    0.0700
     39 H39        -8.9835    2.5839   54.0851 H       1  ZINC001327099466    0.0700
     40 H40        -7.5523    1.9021   54.8945 H       1  ZINC001327099466    0.0700
     41 H41        -5.9994    0.3140   51.1840 H       1  ZINC001327099466    0.1800
     42 H42        -7.3882   -1.8937   50.8993 H       1  ZINC001327099466    0.1700
     43 H43       -13.9454   -4.2559   53.4831 H       1  ZINC001327099466    0.1600
     44 H44       -12.7671   -5.4331   54.1178 H       1  ZINC001327099466    0.0700
     45 H45       -14.3205   -3.3559   55.7295 H       1  ZINC001327099466    0.0700
     46 H46       -14.5482   -5.1213   55.7721 H       1  ZINC001327099466    0.0900
     47 H47       -13.1800   -4.3786   57.6919 H       1  ZINC001327099466    0.0800
     48 H48       -12.2138   -5.3901   56.5915 H       1  ZINC001327099466    0.0800
     49 H49       -12.1177   -3.0347   59.0866 H       1  ZINC001327099466    0.0700
     50 H50       -10.4823   -2.9155   60.9098 H       1  ZINC001327099466    0.0900
     51 H51        -9.4382   -3.8704   59.7700 H       1  ZINC001327099466    0.0700
     52 H52        -9.0510   -1.0457   60.2299 H       1  ZINC001327099466    0.0700
     53 H53        -8.6520   -1.8398   58.6452 H       1  ZINC001327099466    0.0800
     54 H54       -10.7386   -0.7923   57.9001 H       1  ZINC001327099466    0.0800
     55 H55       -11.3985   -0.7467   59.5924 H       1  ZINC001327099466    0.0900
     56 H56       -10.4717   -4.3126   55.0968 H       1  ZINC001327099466    0.0900
     57 H57       -10.4238   -2.5345   54.9815 H       1  ZINC001327099466    0.1000
@<TRIPOS>BOND
     1     1     2    2
     2     2     3   am
     3     2    15    1
     4     3     4    1
     5     3    29    1
     6     4    14    1
     7     4     5    2
     8     5     6    1
     9     6     7    1
    10     6    13    1
    11     7    12    1
    12     7     8    1
    13     7    30    1
    14     8     9    1
    15     8    31    1
    16     8    32    1
    17     9    10    1
    18     9    33    1
    19     9    34    1
    20    10    11    1
    21    10    35    1
    22    10    36    1
    23    11    12    1
    24    11    37    1
    25    11    38    1
    26    12    39    1
    27    12    40    1
    28    13    14    2
    29    13    41    1
    30    14    42    1
    31    15    16    2
    32    15    17   am
    33    17    28    1
    34    17    18    1
    35    18    19    1
    36    18    43    1
    37    18    44    1
    38    19    20    1
    39    19    45    1
    40    19    46    1
    41    20    21    1
    42    20    47    1
    43    20    48    1
    44    21    22    1
    45    21    23    1
    46    21    28    1
    47    23    24    1
    48    24    27    1
    49    24    25    1
    50    24    49    1
    51    25    26    1
    52    25    50    1
    53    25    51    1
    54    26    27    1
    55    26    52    1
    56    26    53    1
    57    27    54    1
    58    27    55    1
    59    28    56    1
    60    28    57    1
@<TRIPOS>SUBSTRUCTURE
     1 ZINC001327099466        1 TEMP              0 ****  ****    0 ROOT


##########                                Name:    ZINC001090961577
##########                DOCK_Rotatable_Bonds:                   9
##########                         Heavy_Atoms:                  24
##########                    Molecular_Weight:             352.458
##########                DOCK_Rotatable_Bonds:                   9
##########                       Formal_Charge:                0.02
##########                     HBond_Acceptors:                   8
##########                        HBond_Donors:                   1
##########                         Heavy_Atoms:                  24
##########                          Grid_Score:          -35.259171
##########                     Grid_vdw_energy:          -35.299164
##########                      Grid_es_energy:            0.039993
##########           Internal_energy_repulsive:           12.213481

@<TRIPOS>MOLECULE
ZINC001090961577
 48 49 1 0 0
SMALL
USER_CHARGES


@<TRIPOS>ATOM
      1 C1         -5.7039    1.0101   50.6665 C.3     1  ZINC001090961577   -0.1400
      2 C2         -6.9487    1.1907   51.5377 C.3     1  ZINC001090961577   -0.0900
      3 S3         -7.7568   -0.4154   51.7781 S.3     1  ZINC001090961577   -0.2700
      4 C4         -9.3432    0.0348   52.5336 C.3     1  ZINC001090961577   -0.0700
      5 C5        -10.1592   -1.2317   52.7996 C.3     1  ZINC001090961577   -0.1200
      6 C6        -11.5977   -0.8591   53.0503 C.2     1  ZINC001090961577    0.5400
      7 O7        -12.0715    0.1225   52.5182 O.2     1  ZINC001090961577   -0.5300
      8 N8        -12.3578   -1.6166   53.8657 N.am    1  ZINC001090961577   -0.6200
      9 C9        -13.7690   -1.3694   54.1962 C.3     1  ZINC001090961577    0.1100
     10 C10       -14.2250   -2.5049   55.1366 C.3     1  ZINC001090961577   -0.1100
     11 H11       -14.1548   -2.1940   56.1789 H       1  ZINC001090961577    0.0900
     12 C12       -15.6508   -2.9465   54.8004 C.3     1  ZINC001090961577   -0.1400
     13 C13       -13.2092   -3.6375   54.8319 C.3     1  ZINC001090961577    0.1500
     14 H14       -13.5038   -4.1984   53.9449 H       1  ZINC001090961577    0.1200
     15 N15       -13.0537   -4.5276   55.9850 N.pl3   1  ZINC001090961577   -0.6700
     16 C16       -12.1779   -4.1976   56.9978 C.ar    1  ZINC001090961577    0.5900
     17 N17       -11.1041   -4.9522   57.1920 N.ar    1  ZINC001090961577   -0.5700
     18 C18       -10.2419   -4.6702   58.1502 C.ar    1  ZINC001090961577    0.2700
     19 C19       -10.4748   -3.5556   58.9675 C.ar    1  ZINC001090961577   -0.3000
     20 C20        -9.5383   -3.2025   60.0500 C.2     1  ZINC001090961577    0.5300
     21 O21        -8.3689   -3.5226   59.9702 O.2     1  ZINC001090961577   -0.5100
     22 O22        -9.9791   -2.5247   61.1278 O.3     1  ZINC001090961577   -0.3600
     23 C23        -9.1304   -1.4580   61.6283 C.3     1  ZINC001090961577    0.0400
     24 C24       -11.6211   -2.7853   58.7285 C.ar    1  ZINC001090961577    0.2600
     25 N25       -12.4311   -3.1315   57.7461 N.ar    1  ZINC001090961577   -0.5700
     26 C26       -11.9138   -2.8339   54.5689 C.3     1  ZINC001090961577    0.0900
     27 H27        -5.2184    1.9752   50.5220 H       1  ZINC001090961577    0.0700
     28 H28        -5.0127    0.3256   51.1582 H       1  ZINC001090961577    0.0700
     29 H29        -5.9939    0.6007   49.6988 H       1  ZINC001090961577    0.0700
     30 H30        -6.6588    1.6001   52.5053 H       1  ZINC001090961577    0.0800
     31 H31        -7.6400    1.8752   51.0459 H       1  ZINC001090961577    0.0800
     32 H32        -9.1630    0.5553   53.4743 H       1  ZINC001090961577    0.0900
     33 H33        -9.8955    0.6875   51.8574 H       1  ZINC001090961577    0.0900
     34 H34       -10.1002   -1.8906   51.9333 H       1  ZINC001090961577    0.1000
     35 H35        -9.7591   -1.7447   53.6741 H       1  ZINC001090961577    0.1000
     36 H36       -13.8687   -0.4082   54.7002 H       1  ZINC001090961577    0.0800
     37 H37       -14.3696   -1.3776   53.2866 H       1  ZINC001090961577    0.0800
     38 H38       -15.6927   -3.2811   53.7639 H       1  ZINC001090961577    0.0600
     39 H39       -15.9424   -3.7650   55.4585 H       1  ZINC001090961577    0.0600
     40 H40       -16.3331   -2.1078   54.9393 H       1  ZINC001090961577    0.0700
     41 H41       -13.5669   -5.3493   56.0361 H       1  ZINC001090961577    0.4200
     42 H42        -9.3701   -5.2892   58.3026 H       1  ZINC001090961577    0.1800
     43 H43        -9.6015   -0.9956   62.4958 H       1  ZINC001090961577    0.1100
     44 H44        -8.1626   -1.8686   61.9161 H       1  ZINC001090961577    0.0700
     45 H45        -8.9902   -0.7093   60.8487 H       1  ZINC001090961577    0.0700
     46 H46       -11.8359   -1.9189   59.3364 H       1  ZINC001090961577    0.1800
     47 H47       -11.2307   -3.4092   53.9440 H       1  ZINC001090961577    0.0900
     48 H48       -11.4345   -2.5679   55.5111 H       1  ZINC001090961577    0.0800
@<TRIPOS>BOND
     1     1     2    1
     2     1    27    1
     3     1    28    1
     4     1    29    1
     5     2     3    1
     6     2    30    1
     7     2    31    1
     8     3     4    1
     9     4     5    1
    10     4    32    1
    11     4    33    1
    12     5     6    1
    13     5    34    1
    14     5    35    1
    15     6     7    2
    16     6     8   am
    17     8    26    1
    18     8     9    1
    19     9    10    1
    20     9    36    1
    21     9    37    1
    22    10    11    1
    23    10    12    1
    24    10    13    1
    25    12    38    1
    26    12    39    1
    27    12    40    1
    28    13    14    1
    29    13    15    1
    30    13    26    1
    31    15    16    1
    32    15    41    1
    33    16    25   ar
    34    16    17   ar
    35    17    18   ar
    36    18    19   ar
    37    18    42    1
    38    19    20    1
    39    19    24   ar
    40    20    21    2
    41    20    22    1
    42    22    23    1
    43    23    43    1
    44    23    44    1
    45    23    45    1
    46    24    25   ar
    47    24    46    1
    48    26    47    1
    49    26    48    1
@<TRIPOS>SUBSTRUCTURE
     1 ZINC001090961577        1 TEMP              0 ****  ****    0 ROOT


##########                                Name:    ZINC000074782190
##########                DOCK_Rotatable_Bonds:                   9
##########                         Heavy_Atoms:                  25
##########                    Molecular_Weight:             341.453
##########                DOCK_Rotatable_Bonds:                   9
##########                       Formal_Charge:          -0.0200006
##########                     HBond_Acceptors:                   5
##########                        HBond_Donors:                   1
##########                         Heavy_Atoms:                  25
##########                          Grid_Score:          -35.225151
##########                     Grid_vdw_energy:          -35.478943
##########                      Grid_es_energy:            0.253791
##########           Internal_energy_repulsive:           22.357729

@<TRIPOS>MOLECULE
ZINC000074782190
 52 53 1 0 0
SMALL
USER_CHARGES


@<TRIPOS>ATOM
      1 C1        -10.2602    1.4279   60.4038 C.3     1  ZINC000074782190   -0.1100
      2 C2         -9.8045    0.6654   61.6211 C.ar    1  ZINC000074782190   -0.1200
      3 C3        -10.0304    1.1791   62.8832 C.ar    1  ZINC000074782190   -0.0800
      4 C4         -9.6120    0.4801   64.0007 C.ar    1  ZINC000074782190   -0.1500
      5 C5         -8.9671   -0.7343   63.8577 C.ar    1  ZINC000074782190   -0.0900
      6 C6         -8.7391   -1.2527   62.5975 C.ar    1  ZINC000074782190   -0.2100
      7 C7         -9.1625   -0.5561   61.4753 C.ar    1  ZINC000074782190    0.1300
      8 O8         -8.9393   -1.0638   60.2345 O.3     1  ZINC000074782190   -0.3000
      9 C9         -9.7965   -2.1226   59.8031 C.3     1  ZINC000074782190    0.0700
     10 H10       -10.7006   -2.1292   60.4120 H       1  ZINC000074782190    0.0800
     11 C11        -9.0701   -3.4606   59.9542 C.3     1  ZINC000074782190   -0.1800
     12 C12       -10.1719   -1.9089   58.3354 C.3     1  ZINC000074782190    0.1400
     13 N13       -11.3539   -2.7115   58.0117 N.am    1  ZINC000074782190   -0.7500
     14 C14       -12.1236   -2.3821   56.9554 C.2     1  ZINC000074782190    0.7100
     15 O15       -11.8368   -1.4189   56.2711 O.2     1  ZINC000074782190   -0.5900
     16 N16       -13.2110   -3.1204   56.6577 N.am    1  ZINC000074782190   -0.6200
     17 C17       -14.0476   -2.7625   55.5095 C.3     1  ZINC000074782190    0.1800
     18 C18       -13.2095   -2.7649   54.2571 C.ar    1  ZINC000074782190   -0.1600
     19 C19       -13.4513   -1.8448   53.2488 C.ar    1  ZINC000074782190   -0.0500
     20 C20       -12.6546   -1.8839   52.1145 C.ar    1  ZINC000074782190   -0.1800
     21 C21       -11.6532   -2.8321   52.0274 C.ar    1  ZINC000074782190    0.1000
     22 N22       -11.4517   -3.6923   53.0067 N.ar    1  ZINC000074782190   -0.4900
     23 C23       -12.1860   -3.6810   54.1016 C.ar    1  ZINC000074782190    0.1100
     24 C24       -13.5566   -4.2811   57.4822 C.3     1  ZINC000074782190    0.1300
     25 C25       -14.8941   -4.0299   58.1814 C.3     1  ZINC000074782190   -0.1800
     26 C26       -13.6705   -5.5218   56.5942 C.3     1  ZINC000074782190   -0.1800
     27 H27       -11.2773    1.1304   60.1484 H       1  ZINC000074782190    0.0700
     28 H28       -10.2366    2.4971   60.6148 H       1  ZINC000074782190    0.0600
     29 H29        -9.5966    1.2079   59.5677 H       1  ZINC000074782190    0.0700
     30 H30       -10.5341    2.1276   62.9974 H       1  ZINC000074782190    0.1300
     31 H31        -9.7890    0.8838   64.9865 H       1  ZINC000074782190    0.1200
     32 H32        -8.6409   -1.2781   64.7320 H       1  ZINC000074782190    0.1200
     33 H33        -8.2349   -2.2013   62.4864 H       1  ZINC000074782190    0.1300
     34 H34        -8.1661   -3.4540   59.3453 H       1  ZINC000074782190    0.0700
     35 H35        -8.8028   -3.6129   60.9999 H       1  ZINC000074782190    0.0700
     36 H36        -9.7240   -4.2682   59.6251 H       1  ZINC000074782190    0.0800
     37 H37       -10.3910   -0.8547   58.1661 H       1  ZINC000074782190    0.0800
     38 H38        -9.3405   -2.2137   57.6996 H       1  ZINC000074782190    0.0900
     39 H39       -11.5827   -3.4800   58.5576 H       1  ZINC000074782190    0.4100
     40 H40       -14.8548   -3.4877   55.4080 H       1  ZINC000074782190    0.0900
     41 H41       -14.4690   -1.7689   55.6627 H       1  ZINC000074782190    0.1000
     42 H42       -14.2417   -1.1149   53.3443 H       1  ZINC000074782190    0.1400
     43 H43       -12.8151   -1.1825   51.3091 H       1  ZINC000074782190    0.1300
     44 H44       -11.0287   -2.8695   51.1471 H       1  ZINC000074782190    0.1600
     45 H45       -11.9912   -4.4012   54.8824 H       1  ZINC000074782190    0.1500
     46 H46       -12.7797   -4.4396   58.2301 H       1  ZINC000074782190    0.1000
     47 H47       -15.6864   -3.9612   57.4361 H       1  ZINC000074782190    0.0600
     48 H48       -15.1075   -4.8525   58.8639 H       1  ZINC000074782190    0.0700
     49 H49       -14.8411   -3.0968   58.7425 H       1  ZINC000074782190    0.0600
     50 H50       -12.6899   -5.7682   56.1868 H       1  ZINC000074782190    0.0700
     51 H51       -14.0391   -6.3596   57.1861 H       1  ZINC000074782190    0.0700
     52 H52       -14.3636   -5.3214   55.7771 H       1  ZINC000074782190    0.0700
@<TRIPOS>BOND
     1     1     2    1
     2     1    27    1
     3     1    28    1
     4     1    29    1
     5     2     7   ar
     6     2     3   ar
     7     3     4   ar
     8     3    30    1
     9     4     5   ar
    10     4    31    1
    11     5     6   ar
    12     5    32    1
    13     6     7   ar
    14     6    33    1
    15     7     8    1
    16     8     9    1
    17     9    10    1
    18     9    11    1
    19     9    12    1
    20    11    34    1
    21    11    35    1
    22    11    36    1
    23    12    13    1
    24    12    37    1
    25    12    38    1
    26    13    14   am
    27    13    39    1
    28    14    15    2
    29    14    16   am
    30    16    17    1
    31    16    24    1
    32    17    18    1
    33    17    40    1
    34    17    41    1
    35    18    23   ar
    36    18    19   ar
    37    19    20   ar
    38    19    42    1
    39    20    21   ar
    40    20    43    1
    41    21    22   ar
    42    21    44    1
    43    22    23   ar
    44    23    45    1
    45    24    25    1
    46    24    26    1
    47    24    46    1
    48    25    47    1
    49    25    48    1
    50    25    49    1
    51    26    50    1
    52    26    51    1
    53    26    52    1
@<TRIPOS>SUBSTRUCTURE
     1 ZINC000074782190        1 TEMP              0 ****  ****    0 ROOT


##########                                Name:    ZINC000807524472
##########                DOCK_Rotatable_Bonds:                   9
##########                         Heavy_Atoms:                  28
##########                    Molecular_Weight:             410.534
##########                DOCK_Rotatable_Bonds:                   9
##########                       Formal_Charge:           0.0200006
##########                     HBond_Acceptors:                   8
##########                        HBond_Donors:                   0
##########                         Heavy_Atoms:                  28
##########                          Grid_Score:          -35.215618
##########                     Grid_vdw_energy:          -35.350147
##########                      Grid_es_energy:            0.134530
##########           Internal_energy_repulsive:           13.400984

@<TRIPOS>MOLECULE
ZINC000807524472
 58 60 1 0 0
SMALL
USER_CHARGES


@<TRIPOS>ATOM
      1 C1         -7.6144    0.6610   66.0724 C.3     1  ZINC000807524472   -0.1500
      2 C2         -8.7083    0.6300   65.0031 C.3     1  ZINC000807524472    0.0600
      3 O3         -8.3499   -0.3030   63.9819 O.3     1  ZINC000807524472   -0.3800
      4 C4         -9.3113   -0.4115   62.9302 C.3     1  ZINC000807524472    0.0600
      5 C5         -8.8741   -1.5017   61.9498 C.3     1  ZINC000807524472    0.0700
      6 O6        -10.0451   -2.0804   61.3158 O.3     1  ZINC000807524472   -0.3500
      7 C7        -10.6366   -1.3559   60.3455 C.2     1  ZINC000807524472    0.5000
      8 O8        -10.2180   -0.2478   60.0739 O.2     1  ZINC000807524472   -0.4600
      9 C9        -11.7904   -1.9070   59.6144 C.ar    1  ZINC000807524472   -0.1200
     10 C10       -11.6284   -3.0132   58.7758 C.ar    1  ZINC000807524472    0.0400
     11 C11       -12.7119   -3.5240   58.0953 C.ar    1  ZINC000807524472   -0.7000
     12 S12       -12.5047   -4.9192   57.0392 S.o2    1  ZINC000807524472    2.6900
     13 O13       -11.2653   -5.5141   57.3988 O.2     1  ZINC000807524472   -0.9500
     14 O14       -13.7390   -5.6231   57.0576 O.2     1  ZINC000807524472   -0.9500
     15 N15       -12.3175   -4.3438   55.4978 N.am    1  ZINC000807524472   -0.9900
     16 C16       -13.2643   -4.7186   54.4387 C.3     1  ZINC000807524472    0.1200
     17 C17       -13.8028   -3.4424   53.7843 C.3     1  ZINC000807524472   -0.1400
     18 C18       -12.6290   -2.5859   53.3039 C.3     1  ZINC000807524472   -0.1200
     19 C19       -11.7631   -2.1866   54.5008 C.3     1  ZINC000807524472   -0.1400
     20 C20       -11.2049   -3.4438   55.1647 C.3     1  ZINC000807524472    0.1200
     21 C21       -13.9637   -2.9468   58.2370 C.ar    1  ZINC000807524472    0.0200
     22 C22       -14.1404   -1.8539   59.0607 C.ar    1  ZINC000807524472   -0.1800
     23 C23       -13.0616   -1.3276   59.7599 C.ar    1  ZINC000807524472    0.2000
     24 N24       -13.2367   -0.2284   60.5896 N.3     1  ZINC000807524472   -0.4800
     25 C25       -13.8065    0.9196   59.8389 C.3     1  ZINC000807524472    0.0400
     26 C26       -14.4082    1.8098   60.9552 C.3     1  ZINC000807524472   -0.1200
     27 C27       -14.9767    0.7752   61.9535 C.3     1  ZINC000807524472   -0.1300
     28 C28       -14.2053   -0.5264   61.6669 C.3     1  ZINC000807524472    0.0400
     29 H29        -6.6709    0.9640   65.6183 H       1  ZINC000807524472    0.0600
     30 H30        -7.8879    1.3726   66.8514 H       1  ZINC000807524472    0.0700
     31 H31        -7.5051   -0.3317   66.5092 H       1  ZINC000807524472    0.0700
     32 H32        -9.6518    0.3269   65.4572 H       1  ZINC000807524472    0.0500
     33 H33        -8.8176    1.6227   64.5663 H       1  ZINC000807524472    0.0500
     34 H34       -10.2828   -0.6699   63.3514 H       1  ZINC000807524472    0.0600
     35 H35        -9.3846    0.5411   62.4053 H       1  ZINC000807524472    0.0700
     36 H36        -8.2262   -1.0671   61.1886 H       1  ZINC000807524472    0.0900
     37 H37        -8.3315   -2.2785   62.4886 H       1  ZINC000807524472    0.0800
     38 H38       -10.6551   -3.4669   58.6613 H       1  ZINC000807524472    0.1600
     39 H39       -12.7542   -5.3256   53.6906 H       1  ZINC000807524472    0.0800
     40 H40       -14.0900   -5.2844   54.8702 H       1  ZINC000807524472    0.0900
     41 H41       -14.4319   -3.7069   52.9345 H       1  ZINC000807524472    0.0800
     42 H42       -14.3895   -2.8806   54.5112 H       1  ZINC000807524472    0.0700
     43 H43       -12.0285   -3.1572   52.5958 H       1  ZINC000807524472    0.0700
     44 H44       -13.0098   -1.6888   52.8158 H       1  ZINC000807524472    0.0700
     45 H45       -10.9404   -1.5574   54.1610 H       1  ZINC000807524472    0.0800
     46 H46       -12.3690   -1.6367   55.2209 H       1  ZINC000807524472    0.0700
     47 H47       -10.6699   -3.1700   56.0740 H       1  ZINC000807524472    0.0900
     48 H48       -10.5268   -3.9495   54.4775 H       1  ZINC000807524472    0.0800
     49 H49       -14.8067   -3.3548   57.6989 H       1  ZINC000807524472    0.1500
     50 H50       -15.1193   -1.4097   59.1652 H       1  ZINC000807524472    0.1400
     51 H51       -13.0236    1.4541   59.3007 H       1  ZINC000807524472    0.0900
     52 H52       -14.5848    0.5831   59.1539 H       1  ZINC000807524472    0.0500
     53 H53       -13.6330    2.4145   61.4261 H       1  ZINC000807524472    0.0800
     54 H54       -15.2035    2.4408   60.5588 H       1  ZINC000807524472    0.0800
     55 H55       -14.8003    1.1017   62.9784 H       1  ZINC000807524472    0.0800
     56 H56       -16.0429    0.6290   61.7805 H       1  ZINC000807524472    0.0700
     57 H57       -14.8965   -1.3034   61.3403 H       1  ZINC000807524472    0.0500
     58 H58       -13.6760   -0.8493   62.5633 H       1  ZINC000807524472    0.0900
@<TRIPOS>BOND
     1     1     2    1
     2     1    29    1
     3     1    30    1
     4     1    31    1
     5     2     3    1
     6     2    32    1
     7     2    33    1
     8     3     4    1
     9     4     5    1
    10     4    34    1
    11     4    35    1
    12     5     6    1
    13     5    36    1
    14     5    37    1
    15     6     7    1
    16     7     8    2
    17     7     9    1
    18     9    23   ar
    19     9    10   ar
    20    10    11   ar
    21    10    38    1
    22    11    12    1
    23    11    21   ar
    24    12    13    2
    25    12    14    2
    26    12    15   am
    27    15    20    1
    28    15    16    1
    29    16    17    1
    30    16    39    1
    31    16    40    1
    32    17    18    1
    33    17    41    1
    34    17    42    1
    35    18    19    1
    36    18    43    1
    37    18    44    1
    38    19    20    1
    39    19    45    1
    40    19    46    1
    41    20    47    1
    42    20    48    1
    43    21    22   ar
    44    21    49    1
    45    22    23   ar
    46    22    50    1
    47    23    24    1
    48    24    28    1
    49    24    25    1
    50    25    26    1
    51    25    51    1
    52    25    52    1
    53    26    27    1
    54    26    53    1
    55    26    54    1
    56    27    28    1
    57    27    55    1
    58    27    56    1
    59    28    57    1
    60    28    58    1
@<TRIPOS>SUBSTRUCTURE
     1 ZINC000807524472        1 TEMP              0 ****  ****    0 ROOT


##########                                Name:    ZINC001411334959
##########                DOCK_Rotatable_Bonds:                   9
##########                         Heavy_Atoms:                  24
##########                    Molecular_Weight:              339.37
##########                DOCK_Rotatable_Bonds:                   9
##########                       Formal_Charge:           0.0199995
##########                     HBond_Acceptors:                   9
##########                        HBond_Donors:                   3
##########                         Heavy_Atoms:                  24
##########                          Grid_Score:          -35.214222
##########                     Grid_vdw_energy:          -31.654753
##########                      Grid_es_energy:           -3.559468
##########           Internal_energy_repulsive:            6.934983

@<TRIPOS>MOLECULE
ZINC001411334959
 46 48 1 0 0
SMALL
USER_CHARGES


@<TRIPOS>ATOM
      1 O1        -16.4046   -2.1761   53.2397 O.2     1  ZINC001411334959   -0.5400
      2 C2        -15.4556   -2.4422   52.5330 C.2     1  ZINC001411334959    0.5200
      3 C3        -15.4284   -1.9751   51.1005 C.3     1  ZINC001411334959   -0.1400
      4 C4        -14.0678   -1.3455   50.7950 C.3     1  ZINC001411334959   -0.0100
      5 C5        -14.1030   -0.7117   49.4282 C.2     1  ZINC001411334959    0.0100
      6 N6        -13.4238    0.3380   49.0247 N.2     1  ZINC001411334959   -0.2800
      7 N7        -13.7211    0.5747   47.7961 N.pl3   1  ZINC001411334959   -0.2500
      8 N8        -14.5771   -0.2808   47.3613 N.2     1  ZINC001411334959   -0.2800
      9 C9        -14.8599   -1.1234   48.3289 C.2     1  ZINC001411334959   -0.0200
     10 N10       -14.4226   -3.1509   53.0303 N.am    1  ZINC001411334959   -0.7200
     11 C11       -14.4490   -3.6049   54.4229 C.3     1  ZINC001411334959    0.1200
     12 C12       -13.3678   -4.6481   54.7513 C.3     1  ZINC001411334959   -0.1400
     13 C13       -13.1838   -3.9196   56.0930 C.3     1  ZINC001411334959   -0.1200
     14 C14       -11.7226   -3.8019   56.5311 C.3     1  ZINC001411334959    0.1300
     15 N15       -11.6395   -2.9742   57.7370 N.am    1  ZINC001411334959   -0.7200
     16 C16       -10.7364   -3.2661   58.6938 C.2     1  ZINC001411334959    0.5100
     17 O17        -9.9915   -4.2132   58.5559 O.2     1  ZINC001411334959   -0.5100
     18 C18       -10.6521   -2.4158   59.9351 C.3     1  ZINC001411334959    0.0700
     19 F19       -11.8479   -2.4751   60.6588 F       1  ZINC001411334959   -0.1800
     20 C20        -9.4461   -2.8417   60.8161 C.3     1  ZINC001411334959   -0.1600
     21 C21        -9.1226   -1.5084   61.5364 C.3     1  ZINC001411334959    0.0500
     22 O22        -9.3652   -0.4851   60.5580 O.3     1  ZINC001411334959   -0.3700
     23 C23       -10.2977   -0.9561   59.5782 C.3     1  ZINC001411334959    0.0400
     24 C24       -13.7204   -2.6599   55.3929 C.3     1  ZINC001411334959   -0.1400
     25 H25       -15.5924   -2.8250   50.4379 H       1  ZINC001411334959    0.1000
     26 H26       -16.2141   -1.2358   50.9444 H       1  ZINC001411334959    0.1000
     27 H27       -13.8435   -0.5847   51.5427 H       1  ZINC001411334959    0.1000
     28 H28       -13.2974   -2.1161   50.8184 H       1  ZINC001411334959    0.0900
     29 H29       -13.3502    1.2998   47.2693 H       1  ZINC001411334959    0.4700
     30 H30       -15.5428   -1.9589   48.2853 H       1  ZINC001411334959    0.2000
     31 H31       -13.6619   -3.3603   52.4661 H       1  ZINC001411334959    0.4000
     32 H32       -15.4470   -3.8887   54.7568 H       1  ZINC001411334959    0.1200
     33 H33       -13.7558   -5.6615   54.8543 H       1  ZINC001411334959    0.0800
     34 H34       -12.4951   -4.5921   54.1007 H       1  ZINC001411334959    0.0900
     35 H35       -13.8343   -4.2914   56.8846 H       1  ZINC001411334959    0.1000
     36 H36       -11.3259   -4.7946   56.7439 H       1  ZINC001411334959    0.0800
     37 H37       -11.1400   -3.3412   55.7333 H       1  ZINC001411334959    0.0800
     38 H38       -12.2344   -2.2159   57.8468 H       1  ZINC001411334959    0.4100
     39 H39        -9.7340   -3.6138   61.5295 H       1  ZINC001411334959    0.1000
     40 H40        -8.6075   -3.1698   60.2020 H       1  ZINC001411334959    0.1100
     41 H41        -9.7796   -1.3736   62.3957 H       1  ZINC001411334959    0.0700
     42 H42        -8.0791   -1.4917   61.8507 H       1  ZINC001411334959    0.1000
     43 H43        -9.8446   -0.9173   58.5876 H       1  ZINC001411334959    0.0900
     44 H44       -11.1978   -0.3416   59.5988 H       1  ZINC001411334959    0.0900
     45 H45       -12.9440   -2.0603   54.9176 H       1  ZINC001411334959    0.0900
     46 H46       -14.3929   -2.0682   56.0138 H       1  ZINC001411334959    0.0800
@<TRIPOS>BOND
     1     1     2    2
     2     2     3    1
     3     2    10   am
     4     3     4    1
     5     3    25    1
     6     3    26    1
     7     4     5    1
     8     4    27    1
     9     4    28    1
    10     5     9    1
    11     5     6    2
    12     6     7    1
    13     7     8    1
    14     7    29    1
    15     8     9    2
    16     9    30    1
    17    10    11    1
    18    10    31    1
    19    11    24    1
    20    11    12    1
    21    11    32    1
    22    12    13    1
    23    12    33    1
    24    12    34    1
    25    13    14    1
    26    13    24    1
    27    13    35    1
    28    14    15    1
    29    14    36    1
    30    14    37    1
    31    15    16   am
    32    15    38    1
    33    16    17    2
    34    16    18    1
    35    18    23    1
    36    18    19    1
    37    18    20    1
    38    20    21    1
    39    20    39    1
    40    20    40    1
    41    21    22    1
    42    21    41    1
    43    21    42    1
    44    22    23    1
    45    23    43    1
    46    23    44    1
    47    24    45    1
    48    24    46    1
@<TRIPOS>SUBSTRUCTURE
     1 ZINC001411334959        1 TEMP              0 ****  ****    0 ROOT


##########                                Name:    ZINC000654672208
##########                DOCK_Rotatable_Bonds:                   5
##########                         Heavy_Atoms:                  25
##########                    Molecular_Weight:             365.497
##########                DOCK_Rotatable_Bonds:                   5
##########                       Formal_Charge:           0.0100001
##########                     HBond_Acceptors:                   7
##########                        HBond_Donors:                   1
##########                         Heavy_Atoms:                  25
##########                          Grid_Score:          -35.194641
##########                     Grid_vdw_energy:          -34.247025
##########                      Grid_es_energy:           -0.947616
##########           Internal_energy_repulsive:           15.330171

@<TRIPOS>MOLECULE
ZINC000654672208
 52 54 1 0 0
SMALL
USER_CHARGES


@<TRIPOS>ATOM
      1 C1        -11.7030   -2.0181   51.5822 C.3     1  ZINC000654672208   -0.1100
      2 C2        -12.4454   -2.7610   52.6628 C.ar    1  ZINC000654672208   -0.1300
      3 C3        -11.8305   -3.7856   53.3567 C.ar    1  ZINC000654672208    0.1000
      4 N4        -12.4737   -4.4400   54.3040 N.ar    1  ZINC000654672208   -0.4700
      5 C5        -13.7184   -4.1474   54.6263 C.ar    1  ZINC000654672208    0.1200
      6 C6        -14.4080   -4.9261   55.7168 C.3     1  ZINC000654672208   -0.0900
      7 C7        -13.3749   -5.3832   56.7485 C.3     1  ZINC000654672208    0.1500
      8 N8        -12.6914   -4.2137   57.3064 N.am    1  ZINC000654672208   -0.7500
      9 C9        -11.4972   -4.3576   57.9144 C.2     1  ZINC000654672208    0.7100
     10 O10       -10.9872   -5.4580   58.0000 O.2     1  ZINC000654672208   -0.5800
     11 N11       -10.8684   -3.2817   58.4277 N.am    1  ZINC000654672208   -0.6300
     12 C12        -9.5662   -3.4233   59.0933 C.3     1  ZINC000654672208    0.1300
     13 C13        -9.6556   -2.7953   60.4876 C.3     1  ZINC000654672208   -0.1400
     14 C14       -10.1430   -1.3505   60.3623 C.3     1  ZINC000654672208   -0.1100
     15 C15       -11.5436   -1.3355   59.7383 C.3     1  ZINC000654672208   -0.0600
     16 C16       -12.0293    0.1136   59.6295 C.3     1  ZINC000654672208   -0.1200
     17 C17       -13.5764    0.1283   59.7276 C.3     1  ZINC000654672208   -0.5800
     18 S18       -13.8584   -1.0836   61.0807 S.o2    1  ZINC000654672208    2.3800
     19 O19       -13.5694   -0.4767   62.3326 O.2     1  ZINC000654672208   -0.9300
     20 O20       -15.1007   -1.7433   60.8789 O.2     1  ZINC000654672208   -0.9300
     21 C21       -12.4820   -2.1944   60.6034 C.3     1  ZINC000654672208   -0.5800
     22 C22       -11.4695   -1.9454   58.3265 C.3     1  ZINC000654672208    0.1200
     23 C23       -14.3977   -3.1345   53.9758 C.ar    1  ZINC000654672208   -0.1200
     24 C24       -15.8200   -2.8064   54.3507 C.3     1  ZINC000654672208   -0.1200
     25 C25       -13.7525   -2.4211   52.9775 C.ar    1  ZINC000654672208   -0.0800
     26 H26       -11.1811   -1.1667   52.0192 H       1  ZINC000654672208    0.0700
     27 H27       -10.9800   -2.6858   51.1133 H       1  ZINC000654672208    0.0700
     28 H28       -12.4106   -1.6647   50.8323 H       1  ZINC000654672208    0.0700
     29 H29       -10.8115   -4.0540   53.1202 H       1  ZINC000654672208    0.1600
     30 H30       -15.1503   -4.2922   56.2021 H       1  ZINC000654672208    0.0900
     31 H31       -14.9006   -5.7973   55.2853 H       1  ZINC000654672208    0.0900
     32 H32       -13.8767   -5.9270   57.5489 H       1  ZINC000654672208    0.0700
     33 H33       -12.6455   -6.0354   56.2680 H       1  ZINC000654672208    0.0700
     34 H34       -13.0983   -3.3359   57.2382 H       1  ZINC000654672208    0.3900
     35 H35        -9.3150   -4.4801   59.1837 H       1  ZINC000654672208    0.1000
     36 H36        -8.8003   -2.9118   58.5104 H       1  ZINC000654672208    0.0700
     37 H37       -10.3567   -3.3640   61.0985 H       1  ZINC000654672208    0.0700
     38 H38        -8.6714   -2.8078   60.9560 H       1  ZINC000654672208    0.0800
     39 H39       -10.1808   -0.8927   61.3507 H       1  ZINC000654672208    0.0800
     40 H40        -9.4568   -0.7893   59.7281 H       1  ZINC000654672208    0.0800
     41 H41       -11.6050    0.7042   60.4415 H       1  ZINC000654672208    0.1000
     42 H42       -11.7187    0.5333   58.6727 H       1  ZINC000654672208    0.1000
     43 H43       -13.9424    1.1171   60.0041 H       1  ZINC000654672208    0.1400
     44 H44       -14.0316   -0.2101   58.7968 H       1  ZINC000654672208    0.1400
     45 H45       -12.8606   -3.0378   60.0262 H       1  ZINC000654672208    0.1400
     46 H46       -11.9579   -2.5486   61.4910 H       1  ZINC000654672208    0.1400
     47 H47       -10.8575   -1.3105   57.6858 H       1  ZINC000654672208    0.0800
     48 H48       -12.4737   -2.0283   57.9109 H       1  ZINC000654672208    0.0800
     49 H49       -15.8235   -2.0522   55.1378 H       1  ZINC000654672208    0.0800
     50 H50       -16.3466   -2.4222   53.4771 H       1  ZINC000654672208    0.0700
     51 H51       -16.3185   -3.7072   54.7085 H       1  ZINC000654672208    0.0700
     52 H52       -14.2584   -1.6245   52.4522 H       1  ZINC000654672208    0.1300
@<TRIPOS>BOND
     1     1     2    1
     2     1    26    1
     3     1    27    1
     4     1    28    1
     5     2    25   ar
     6     2     3   ar
     7     3     4   ar
     8     3    29    1
     9     4     5   ar
    10     5     6    1
    11     5    23   ar
    12     6     7    1
    13     6    30    1
    14     6    31    1
    15     7     8    1
    16     7    32    1
    17     7    33    1
    18     8     9   am
    19     8    34    1
    20     9    10    2
    21     9    11   am
    22    11    22    1
    23    11    12    1
    24    12    13    1
    25    12    35    1
    26    12    36    1
    27    13    14    1
    28    13    37    1
    29    13    38    1
    30    14    15    1
    31    14    39    1
    32    14    40    1
    33    15    21    1
    34    15    16    1
    35    15    22    1
    36    16    17    1
    37    16    41    1
    38    16    42    1
    39    17    18    1
    40    17    43    1
    41    17    44    1
    42    18    19    2
    43    18    20    2
    44    18    21    1
    45    21    45    1
    46    21    46    1
    47    22    47    1
    48    22    48    1
    49    23    24    1
    50    23    25   ar
    51    24    49    1
    52    24    50    1
    53    24    51    1
    54    25    52    1
@<TRIPOS>SUBSTRUCTURE
     1 ZINC000654672208        1 TEMP              0 ****  ****    0 ROOT


##########                                Name:    ZINC000020646552
##########                DOCK_Rotatable_Bonds:                   5
##########                         Heavy_Atoms:                  29
##########                    Molecular_Weight:             412.556
##########                DOCK_Rotatable_Bonds:                   5
##########                       Formal_Charge:          -0.0200012
##########                     HBond_Acceptors:                   7
##########                        HBond_Donors:                   0
##########                         Heavy_Atoms:                  29
##########                          Grid_Score:          -35.178974
##########                     Grid_vdw_energy:          -34.278248
##########                      Grid_es_energy:           -0.900728
##########           Internal_energy_repulsive:           17.053946

@<TRIPOS>MOLECULE
ZINC000020646552
 57 60 1 0 0
SMALL
USER_CHARGES


@<TRIPOS>ATOM
      1 C1        -13.2322   -1.3169   61.7101 C.3     1  ZINC000020646552    0.0200
      2 N2        -11.8891   -0.9688   61.2274 N.3     1  ZINC000020646552   -0.5400
      3 C3        -11.8770    0.3709   60.6250 C.3     1  ZINC000020646552    0.0400
      4 C4        -10.4331    0.7684   60.3005 C.3     1  ZINC000020646552    0.1200
      5 N5         -9.8313   -0.2900   59.4753 N.am    1  ZINC000020646552   -0.6100
      6 C6         -9.2100    0.0056   58.3163 C.2     1  ZINC000020646552    0.5300
      7 O7         -8.7207   -0.8800   57.6476 O.2     1  ZINC000020646552   -0.5200
      8 C8         -9.1235    1.4364   57.8513 C.3     1  ZINC000020646552   -0.1500
      9 S9        -10.5883    1.8407   56.8678 S.3     1  ZINC000020646552    0.0500
     10 C10       -10.3595    0.7396   55.5114 C.ar    1  ZINC000020646552    0.1500
     11 N11        -9.4269    0.9813   54.5964 N.ar    1  ZINC000020646552   -0.5200
     12 C12        -9.2545    0.1532   53.5755 C.ar    1  ZINC000020646552    0.3800
     13 C13        -8.2026    0.4505   52.5729 C.ar    1  ZINC000020646552   -0.0500
     14 C14        -7.7202    1.7501   52.4298 C.ar    1  ZINC000020646552   -0.0700
     15 C15        -6.7409    2.0209   51.4956 C.ar    1  ZINC000020646552   -0.1300
     16 C16        -6.2385    1.0051   50.7023 C.ar    1  ZINC000020646552   -0.1000
     17 C17        -6.7140   -0.2866   50.8398 C.ar    1  ZINC000020646552   -0.1300
     18 C18        -7.6889   -0.5700   51.7746 C.ar    1  ZINC000020646552   -0.0700
     19 N19        -9.9983   -0.9335   53.4287 N.ar    1  ZINC000020646552   -0.5200
     20 C20       -10.9481   -1.2345   54.3052 C.ar    1  ZINC000020646552    0.2100
     21 C21       -11.1537   -0.4059   55.3844 C.ar    1  ZINC000020646552   -0.2100
     22 C22       -12.2054   -0.6981   56.4188 C.3     1  ZINC000020646552    0.1100
     23 O23       -13.1282   -1.6685   55.9223 O.3     1  ZINC000020646552   -0.3600
     24 C24       -12.4898   -2.8405   55.4031 C.3     1  ZINC000020646552    0.1100
     25 C25       -11.4663   -3.3590   56.4153 C.3     1  ZINC000020646552   -0.1800
     26 C26       -13.5395   -3.9208   55.1346 C.3     1  ZINC000020646552   -0.1400
     27 C27       -11.7768   -2.4753   54.1011 C.3     1  ZINC000020646552   -0.0900
     28 C28        -9.9252   -1.6794   59.9486 C.3     1  ZINC000020646552    0.1100
     29 C29       -11.3891   -1.9805   60.2870 C.3     1  ZINC000020646552    0.0400
     30 H30       -13.1971   -2.2801   62.2190 H       1  ZINC000020646552    0.0700
     31 H31       -13.5784   -0.5514   62.4047 H       1  ZINC000020646552    0.0700
     32 H32       -13.9177   -1.3774   60.8649 H       1  ZINC000020646552    0.0300
     33 H33       -12.4668    0.3629   59.7083 H       1  ZINC000020646552    0.0400
     34 H34       -12.3032    1.0888   61.3259 H       1  ZINC000020646552    0.0900
     35 H35       -10.4272    1.7094   59.7505 H       1  ZINC000020646552    0.1000
     36 H36        -9.8668    0.8781   61.2253 H       1  ZINC000020646552    0.0800
     37 H37        -9.0731    2.0973   58.7166 H       1  ZINC000020646552    0.1300
     38 H38        -8.2293    1.5669   57.2418 H       1  ZINC000020646552    0.1200
     39 H39        -8.1119    2.5440   53.0484 H       1  ZINC000020646552    0.1400
     40 H40        -6.3665    3.0277   51.3835 H       1  ZINC000020646552    0.1300
     41 H41        -5.4723    1.2215   49.9726 H       1  ZINC000020646552    0.1300
     42 H42        -6.3184   -1.0756   50.2175 H       1  ZINC000020646552    0.1300
     43 H43        -8.0595   -1.5788   51.8811 H       1  ZINC000020646552    0.1300
     44 H44       -11.7283   -1.0815   57.3207 H       1  ZINC000020646552    0.0800
     45 H45       -12.7412    0.2203   56.6587 H       1  ZINC000020646552    0.1100
     46 H46       -11.9715   -3.6055   57.3491 H       1  ZINC000020646552    0.0700
     47 H47       -10.9819   -4.2510   56.0178 H       1  ZINC000020646552    0.0700
     48 H48       -10.7162   -2.5899   56.5999 H       1  ZINC000020646552    0.0600
     49 H49       -14.2637   -3.5514   54.4086 H       1  ZINC000020646552    0.0700
     50 H50       -13.0511   -4.8116   54.7396 H       1  ZINC000020646552    0.0800
     51 H51       -14.0513   -4.1691   56.0644 H       1  ZINC000020646552    0.0700
     52 H52       -12.5165   -2.2864   53.3232 H       1  ZINC000020646552    0.1000
     53 H53       -11.1333   -3.3006   53.7962 H       1  ZINC000020646552    0.1000
     54 H54        -9.5835   -2.3566   59.1659 H       1  ZINC000020646552    0.0900
     55 H55        -9.3101   -1.8050   60.8396 H       1  ZINC000020646552    0.0800
     56 H56       -11.4614   -2.9680   60.7427 H       1  ZINC000020646552    0.0900
     57 H57       -11.9857   -1.9558   59.3750 H       1  ZINC000020646552    0.0400
@<TRIPOS>BOND
     1     1     2    1
     2     1    30    1
     3     1    31    1
     4     1    32    1
     5     2    29    1
     6     2     3    1
     7     3     4    1
     8     3    33    1
     9     3    34    1
    10     4     5    1
    11     4    35    1
    12     4    36    1
    13     5     6   am
    14     5    28    1
    15     6     7    2
    16     6     8    1
    17     8     9    1
    18     8    37    1
    19     8    38    1
    20     9    10    1
    21    10    21   ar
    22    10    11   ar
    23    11    12   ar
    24    12    13    1
    25    12    19   ar
    26    13    18   ar
    27    13    14   ar
    28    14    15   ar
    29    14    39    1
    30    15    16   ar
    31    15    40    1
    32    16    17   ar
    33    16    41    1
    34    17    18   ar
    35    17    42    1
    36    18    43    1
    37    19    20   ar
    38    20    27    1
    39    20    21   ar
    40    21    22    1
    41    22    23    1
    42    22    44    1
    43    22    45    1
    44    23    24    1
    45    24    25    1
    46    24    26    1
    47    24    27    1
    48    25    46    1
    49    25    47    1
    50    25    48    1
    51    26    49    1
    52    26    50    1
    53    26    51    1
    54    27    52    1
    55    27    53    1
    56    28    29    1
    57    28    54    1
    58    28    55    1
    59    29    56    1
    60    29    57    1
@<TRIPOS>SUBSTRUCTURE
     1 ZINC000020646552        1 TEMP              0 ****  ****    0 ROOT


##########                                Name:    ZINC000175255939
##########                DOCK_Rotatable_Bonds:                   8
##########                         Heavy_Atoms:                  28
##########                    Molecular_Weight:             394.375
##########                DOCK_Rotatable_Bonds:                   8
##########                       Formal_Charge:          -0.0399999
##########                     HBond_Acceptors:                   9
##########                        HBond_Donors:                   1
##########                         Heavy_Atoms:                  28
##########                          Grid_Score:          -35.145000
##########                     Grid_vdw_energy:          -34.365108
##########                      Grid_es_energy:           -0.779893
##########           Internal_energy_repulsive:           11.592962

@<TRIPOS>MOLECULE
ZINC000175255939
 48 50 1 0 0
SMALL
USER_CHARGES


@<TRIPOS>ATOM
      1 C1        -17.0074   -3.7954   45.7778 C.3     1  ZINC000175255939    0.0300
      2 O2        -15.8735   -3.1832   46.4471 O.3     1  ZINC000175255939   -0.3600
      3 C3        -16.1169   -2.0804   47.1727 C.2     1  ZINC000175255939    0.4600
      4 O4        -17.2400   -1.6410   47.2458 O.2     1  ZINC000175255939   -0.5000
      5 C5        -14.9892   -1.3905   47.8961 C.3     1  ZINC000175255939   -0.0800
      6 H6        -14.0594   -1.5416   47.3478 H       1  ZINC000175255939    0.1100
      7 C7        -15.2863    0.1073   47.9934 C.3     1  ZINC000175255939   -0.1200
      8 C8        -14.1414    0.8076   48.7279 C.3     1  ZINC000175255939   -0.1100
      9 C9        -14.0046    0.2224   50.1349 C.3     1  ZINC000175255939   -0.1200
     10 C10       -13.7074   -1.2753   50.0377 C.3     1  ZINC000175255939   -0.1000
     11 H11       -12.7776   -1.4263   49.4894 H       1  ZINC000175255939    0.1100
     12 C12       -13.5726   -1.8516   51.4236 C.2     1  ZINC000175255939    0.5100
     13 O13       -14.5614   -2.1937   52.0369 O.2     1  ZINC000175255939   -0.4800
     14 N14       -12.3532   -1.9870   51.9814 N.am    1  ZINC000175255939   -0.6300
     15 C15       -12.2293   -2.5163   53.2583 C.2     1  ZINC000175255939    0.2100
     16 C16       -11.3158   -2.1584   54.2044 C.2     1  ZINC000175255939   -0.2600
     17 C17       -11.6239   -2.9950   55.3084 C.2     1  ZINC000175255939    0.0900
     18 C18       -10.9343   -3.0263   56.6219 C.ar    1  ZINC000175255939   -0.0500
     19 C19       -10.9237   -4.1976   57.3772 C.ar    1  ZINC000175255939   -0.0600
     20 C20       -10.2821   -4.2238   58.5973 C.ar    1  ZINC000175255939   -0.1300
     21 C21        -9.6472   -3.0846   59.0740 C.ar    1  ZINC000175255939    0.1200
     22 O22        -9.0158   -3.1133   60.2764 O.3     1  ZINC000175255939   -0.3200
     23 C23        -8.9272   -1.8797   60.9923 C.3     1  ZINC000175255939    0.4100
     24 F24       -10.2135   -1.3765   61.2150 F       1  ZINC000175255939   -0.2000
     25 F25        -8.2926   -2.0975   62.2199 F       1  ZINC000175255939   -0.2000
     26 C26        -9.6560   -1.9164   58.3236 C.ar    1  ZINC000175255939   -0.1900
     27 C27       -10.2908   -1.8861   57.0999 C.ar    1  ZINC000175255939   -0.0500
     28 N28       -12.6405   -3.7354   54.9354 N.2     1  ZINC000175255939   -0.3600
     29 O29       -12.9892   -3.4775   53.8070 O.3     1  ZINC000175255939    0.1200
     30 C30       -14.8523   -1.9757   49.3032 C.3     1  ZINC000175255939   -0.0900
     31 H31       -16.6731   -4.6754   45.2282 H       1  ZINC000175255939    0.1000
     32 H32       -17.7507   -4.0903   46.5185 H       1  ZINC000175255939    0.0600
     33 H33       -17.4495   -3.0801   45.0843 H       1  ZINC000175255939    0.0600
     34 H34       -15.3838    0.5240   46.9910 H       1  ZINC000175255939    0.0800
     35 H35       -16.2161    0.2583   48.5418 H       1  ZINC000175255939    0.0700
     36 H36       -13.2116    0.6566   48.1795 H       1  ZINC000175255939    0.0700
     37 H37       -14.3531    1.8746   48.7971 H       1  ZINC000175255939    0.0800
     38 H38       -13.1889    0.7215   50.6582 H       1  ZINC000175255939    0.0700
     39 H39       -14.9343    0.3736   50.6833 H       1  ZINC000175255939    0.0800
     40 H40       -11.5623   -1.7146   51.4904 H       1  ZINC000175255939    0.4300
     41 H41       -10.5385   -1.4122   54.1309 H       1  ZINC000175255939    0.1800
     42 H42       -11.4181   -5.0838   57.0073 H       1  ZINC000175255939    0.1400
     43 H43       -10.2737   -5.1311   59.1831 H       1  ZINC000175255939    0.1400
     44 H44        -8.3520   -1.1612   60.4083 H       1  ZINC000175255939    0.1900
     45 H45        -9.1614   -1.0318   58.6968 H       1  ZINC000175255939    0.1400
     46 H46       -10.2970   -0.9773   56.5166 H       1  ZINC000175255939    0.1400
     47 H47       -15.7821   -1.8246   49.8516 H       1  ZINC000175255939    0.0900
     48 H48       -14.6407   -3.0427   49.2339 H       1  ZINC000175255939    0.0800
@<TRIPOS>BOND
     1     1     2    1
     2     1    31    1
     3     1    32    1
     4     1    33    1
     5     2     3    1
     6     3     4    2
     7     3     5    1
     8     5     6    1
     9     5    30    1
    10     5     7    1
    11     7     8    1
    12     7    34    1
    13     7    35    1
    14     8     9    1
    15     8    36    1
    16     8    37    1
    17     9    10    1
    18     9    38    1
    19     9    39    1
    20    10    11    1
    21    10    12    1
    22    10    30    1
    23    12    13    2
    24    12    14   am
    25    14    15    1
    26    14    40    1
    27    15    29    1
    28    15    16    2
    29    16    17    1
    30    16    41    1
    31    17    18    1
    32    17    28    2
    33    18    27   ar
    34    18    19   ar
    35    19    20   ar
    36    19    42    1
    37    20    21   ar
    38    20    43    1
    39    21    22    1
    40    21    26   ar
    41    22    23    1
    42    23    24    1
    43    23    25    1
    44    23    44    1
    45    26    27   ar
    46    26    45    1
    47    27    46    1
    48    28    29    1
    49    30    47    1
    50    30    48    1
@<TRIPOS>SUBSTRUCTURE
     1 ZINC000175255939        1 TEMP              0 ****  ****    0 ROOT


##########                                Name:    ZINC001004075025
##########                DOCK_Rotatable_Bonds:                   8
##########                         Heavy_Atoms:                  25
##########                    Molecular_Weight:              349.43
##########                DOCK_Rotatable_Bonds:                   8
##########                       Formal_Charge:         -0.00999999
##########                     HBond_Acceptors:                   7
##########                        HBond_Donors:                   1
##########                         Heavy_Atoms:                  25
##########                          Grid_Score:          -35.129627
##########                     Grid_vdw_energy:          -35.265591
##########                      Grid_es_energy:            0.135964
##########           Internal_energy_repulsive:           12.936961

@<TRIPOS>MOLECULE
ZINC001004075025
 52 54 1 0 0
SMALL
USER_CHARGES


@<TRIPOS>ATOM
      1 C1        -14.7687   -0.6186   47.7493 C.3     1  ZINC001004075025   -0.1500
      2 C2        -13.9479    0.5139   48.3696 C.3     1  ZINC001004075025   -0.1200
      3 C3        -13.6009    0.1588   49.8168 C.3     1  ZINC001004075025    0.0800
      4 H4        -12.7866    0.7882   50.1754 H       1  ZINC001004075025    0.0700
      5 C5        -14.8465    0.3222   50.7239 C.3     1  ZINC001004075025   -0.1500
      6 C6        -14.4958   -0.6491   51.8839 C.3     1  ZINC001004075025   -0.1400
      7 C7        -13.7286   -1.7709   51.1513 C.3     1  ZINC001004075025    0.0700
      8 H8        -14.3988   -2.6064   50.9496 H       1  ZINC001004075025    0.1100
      9 C9        -12.5719   -2.2362   51.9978 C.2     1  ZINC001004075025    0.5300
     10 O10       -11.4365   -2.1268   51.5861 O.2     1  ZINC001004075025   -0.5200
     11 N11       -12.7993   -2.7742   53.2125 N.am    1  ZINC001004075025   -0.6500
     12 C12       -11.9736   -3.3183   54.3010 C.3     1  ZINC001004075025    0.1100
     13 C13       -13.1699   -4.1947   54.6975 C.3     1  ZINC001004075025   -0.1400
     14 C14       -13.3859   -4.3153   56.2073 C.3     1  ZINC001004075025    0.1300
     15 N15       -12.0921   -4.2555   56.8920 N.am    1  ZINC001004075025   -0.7200
     16 C16       -11.9826   -3.6110   58.0707 C.2     1  ZINC001004075025    0.6000
     17 O17       -12.9580   -3.0805   58.5665 O.2     1  ZINC001004075025   -0.5300
     18 C18       -10.6804   -3.5494   58.7587 C.2     1  ZINC001004075025   -0.2700
     19 C19       -10.1358   -2.5075   59.4690 C.2     1  ZINC001004075025    0.0700
     20 C20       -10.7587   -1.1571   59.7128 C.3     1  ZINC001004075025   -0.0300
     21 C21       -11.6034   -1.2077   60.9875 C.3     1  ZINC001004075025   -0.1500
     22 C22        -9.6564   -0.1083   59.8728 C.3     1  ZINC001004075025   -0.1500
     23 O23        -8.9449   -2.9290   59.9004 O.3     1  ZINC001004075025    0.1000
     24 N24        -8.6898   -4.0585   59.5611 N.2     1  ZINC001004075025   -0.3500
     25 C25        -9.6463   -4.5907   58.8595 C.2     1  ZINC001004075025    0.0200
     26 C26       -13.9819   -3.0694   54.0353 C.3     1  ZINC001004075025    0.1100
     27 O27       -13.2405   -1.2281   49.9172 O.3     1  ZINC001004075025   -0.3400
     28 H28       -15.0159   -0.3656   46.7183 H       1  ZINC001004075025    0.0600
     29 H29       -14.1877   -1.5406   47.7679 H       1  ZINC001004075025    0.0500
     30 H30       -15.6871   -0.7563   48.3199 H       1  ZINC001004075025    0.0600
     31 H31       -13.0294    0.6516   47.7990 H       1  ZINC001004075025    0.0800
     32 H32       -14.5289    1.4360   48.3510 H       1  ZINC001004075025    0.0700
     33 H33       -14.9385    1.3469   51.0840 H       1  ZINC001004075025    0.0900
     34 H34       -15.7528    0.0063   50.2075 H       1  ZINC001004075025    0.0900
     35 H35       -13.8581   -0.1599   52.6202 H       1  ZINC001004075025    0.0800
     36 H36       -15.4004   -1.0389   52.3505 H       1  ZINC001004075025    0.0900
     37 H37       -11.1143   -3.8898   53.9500 H       1  ZINC001004075025    0.0900
     38 H38       -11.7084   -2.5784   55.0562 H       1  ZINC001004075025    0.0900
     39 H39       -13.2142   -5.1519   54.1780 H       1  ZINC001004075025    0.1100
     40 H40       -14.0169   -3.4955   56.5508 H       1  ZINC001004075025    0.0800
     41 H41       -13.8713   -5.2654   56.4302 H       1  ZINC001004075025    0.0800
     42 H42       -11.3143   -4.6798   56.4971 H       1  ZINC001004075025    0.4000
     43 H43       -11.3930   -0.8915   58.8670 H       1  ZINC001004075025    0.1300
     44 H44       -10.9693   -1.4733   61.8333 H       1  ZINC001004075025    0.0600
     45 H45       -12.0540   -0.2310   61.1638 H       1  ZINC001004075025    0.0700
     46 H46       -12.3888   -1.9549   60.8735 H       1  ZINC001004075025    0.0600
     47 H47        -9.0221   -0.3739   60.7185 H       1  ZINC001004075025    0.0600
     48 H48        -9.0546   -0.0722   58.9646 H       1  ZINC001004075025    0.0600
     49 H49       -10.1069    0.8684   60.0490 H       1  ZINC001004075025    0.0700
     50 H50        -9.6730   -5.5836   58.4353 H       1  ZINC001004075025    0.2000
     51 H51       -14.2493   -2.2656   54.7213 H       1  ZINC001004075025    0.0900
     52 H52       -14.8319   -3.4305   53.4564 H       1  ZINC001004075025    0.0800
@<TRIPOS>BOND
     1     1     2    1
     2     1    28    1
     3     1    29    1
     4     1    30    1
     5     2     3    1
     6     2    31    1
     7     2    32    1
     8     3     4    1
     9     3    27    1
    10     3     5    1
    11     5     6    1
    12     5    33    1
    13     5    34    1
    14     6     7    1
    15     6    35    1
    16     6    36    1
    17     7     8    1
    18     7     9    1
    19     7    27    1
    20     9    10    2
    21     9    11   am
    22    11    26    1
    23    11    12    1
    24    12    13    1
    25    12    37    1
    26    12    38    1
    27    13    14    1
    28    13    26    1
    29    13    39    1
    30    14    15    1
    31    14    40    1
    32    14    41    1
    33    15    16   am
    34    15    42    1
    35    16    17    2
    36    16    18    1
    37    18    25    1
    38    18    19    2
    39    19    20    1
    40    19    23    1
    41    20    21    1
    42    20    22    1
    43    20    43    1
    44    21    44    1
    45    21    45    1
    46    21    46    1
    47    22    47    1
    48    22    48    1
    49    22    49    1
    50    23    24    1
    51    24    25    2
    52    25    50    1
    53    26    51    1
    54    26    52    1
@<TRIPOS>SUBSTRUCTURE
     1 ZINC001004075025        1 TEMP              0 ****  ****    0 ROOT


##########                                Name:    ZINC001492779707
##########                DOCK_Rotatable_Bonds:                   8
##########                         Heavy_Atoms:                  27
##########                    Molecular_Weight:             374.483
##########                DOCK_Rotatable_Bonds:                   8
##########                       Formal_Charge:           0.0199998
##########                     HBond_Acceptors:                   7
##########                        HBond_Donors:                   0
##########                         Heavy_Atoms:                  27
##########                          Grid_Score:          -35.126255
##########                     Grid_vdw_energy:          -33.664402
##########                      Grid_es_energy:           -1.461851
##########           Internal_energy_repulsive:           14.489020

@<TRIPOS>MOLECULE
ZINC001492779707
 57 59 1 0 0
SMALL
USER_CHARGES


@<TRIPOS>ATOM
      1 C1         -7.4828    0.9072   51.7604 C.3     1  ZINC001492779707   -0.0700
      2 C2         -8.3987   -0.2619   52.0155 C.2     1  ZINC001492779707    0.1800
      3 N3         -8.1538   -1.5104   51.7343 N.2     1  ZINC001492779707   -0.2900
      4 N4         -9.1491   -2.2445   52.0846 N.2     1  ZINC001492779707   -0.3100
      5 C5        -10.0899   -1.4974   52.6125 C.2     1  ZINC001492779707    0.3400
      6 N6        -11.3095   -1.9343   53.1050 N.3     1  ZINC001492779707   -0.4600
      7 C7        -12.3391   -1.9108   52.0575 C.3     1  ZINC001492779707    0.0300
      8 C8        -11.1894   -3.2741   53.6952 C.3     1  ZINC001492779707    0.1100
      9 C9        -11.8133   -3.2765   55.0669 C.ar    1  ZINC001492779707   -0.0400
     10 C10       -13.1562   -2.9836   55.2154 C.ar    1  ZINC001492779707   -0.1300
     11 C11       -13.7318   -2.9850   56.4728 C.ar    1  ZINC001492779707   -0.0800
     12 C12       -12.9658   -3.2790   57.5838 C.ar    1  ZINC001492779707   -0.2100
     13 C13       -11.6177   -3.5732   57.4375 C.ar    1  ZINC001492779707    0.1300
     14 O14       -10.8619   -3.8633   58.5292 O.3     1  ZINC001492779707   -0.3100
     15 C15       -10.5596   -2.7831   59.4146 C.3     1  ZINC001492779707    0.0800
     16 C16        -9.4934   -3.2289   60.4174 C.3     1  ZINC001492779707   -0.1500
     17 C17       -10.0352   -1.5938   58.6075 C.3     1  ZINC001492779707   -0.1800
     18 C18       -11.0440   -3.5767   56.1747 C.ar    1  ZINC001492779707   -0.1400
     19 N19        -9.6384   -0.2100   52.5903 N.pl3   1  ZINC001492779707   -0.4600
     20 C20       -10.3400    0.9819   53.0732 C.3     1  ZINC001492779707    0.1200
     21 C21       -10.4120    0.9475   54.6011 C.3     1  ZINC001492779707   -0.1200
     22 C22        -9.2133    1.6976   55.1851 C.3     1  ZINC001492779707    0.0600
     23 H23        -8.3423    1.5449   54.5480 H       1  ZINC001492779707    0.0800
     24 C24        -9.5341    3.1930   55.2637 C.3     1  ZINC001492779707    0.0300
     25 O25        -8.4544    3.8713   55.9126 O.3     1  ZINC001492779707   -0.3800
     26 C26        -8.1781    3.3809   57.2280 C.3     1  ZINC001492779707    0.0200
     27 C27        -7.8571    1.8856   57.1495 C.3     1  ZINC001492779707    0.0300
     28 O28        -8.9360    1.2062   56.5000 O.3     1  ZINC001492779707   -0.3800
     29 H29        -6.8376    1.0589   52.6258 H       1  ZINC001492779707    0.0900
     30 H30        -6.8704    0.7042   50.8818 H       1  ZINC001492779707    0.1000
     31 H31        -8.0778    1.8043   51.5891 H       1  ZINC001492779707    0.0800
     32 H32       -12.0936   -2.6451   51.2902 H       1  ZINC001492779707    0.0500
     33 H33       -13.3079   -2.1523   52.4947 H       1  ZINC001492779707    0.0900
     34 H34       -12.3797   -0.9177   51.6101 H       1  ZINC001492779707    0.0700
     35 H35       -11.7023   -3.9976   53.0615 H       1  ZINC001492779707    0.0700
     36 H36       -10.1361   -3.5431   53.7746 H       1  ZINC001492779707    0.0900
     37 H37       -13.7568   -2.7531   54.3478 H       1  ZINC001492779707    0.1200
     38 H38       -14.7811   -2.7555   56.5861 H       1  ZINC001492779707    0.1300
     39 H39       -13.4156   -3.2796   58.5657 H       1  ZINC001492779707    0.1300
     40 H40       -11.4620   -2.4890   59.9504 H       1  ZINC001492779707    0.0700
     41 H41        -8.5909   -3.5229   59.8815 H       1  ZINC001492779707    0.0700
     42 H42        -9.2627   -2.4049   61.0927 H       1  ZINC001492779707    0.0800
     43 H43        -9.8670   -4.0762   60.9922 H       1  ZINC001492779707    0.0700
     44 H44       -10.7947   -1.2762   57.8931 H       1  ZINC001492779707    0.0600
     45 H45        -9.8046   -0.7698   59.2830 H       1  ZINC001492779707    0.0700
     46 H46        -9.1328   -1.8878   58.0716 H       1  ZINC001492779707    0.0700
     47 H47        -9.9950   -3.8054   56.0582 H       1  ZINC001492779707    0.1300
     48 H48        -9.8016    1.8745   52.7548 H       1  ZINC001492779707    0.1000
     49 H49       -11.3494    1.0006   52.6623 H       1  ZINC001492779707    0.1000
     50 H50       -11.3350    1.4235   54.9323 H       1  ZINC001492779707    0.0900
     51 H51       -10.3944   -0.0876   54.9424 H       1  ZINC001492779707    0.0800
     52 H52        -9.6623    3.5914   54.2572 H       1  ZINC001492779707    0.1100
     53 H53       -10.4515    3.3394   55.8339 H       1  ZINC001492779707    0.0600
     54 H54        -7.3240    3.9154   57.6440 H       1  ZINC001492779707    0.1100
     55 H55        -9.0497    3.5335   57.8642 H       1  ZINC001492779707    0.0600
     56 H56        -6.9398    1.7392   56.5792 H       1  ZINC001492779707    0.0600
     57 H57        -7.7290    1.4871   58.1559 H       1  ZINC001492779707    0.1100
@<TRIPOS>BOND
     1     1     2    1
     2     1    29    1
     3     1    30    1
     4     1    31    1
     5     2    19    1
     6     2     3    2
     7     3     4    1
     8     4     5    2
     9     5     6    1
    10     5    19    1
    11     6     7    1
    12     6     8    1
    13     7    32    1
    14     7    33    1
    15     7    34    1
    16     8     9    1
    17     8    35    1
    18     8    36    1
    19     9    18   ar
    20     9    10   ar
    21    10    11   ar
    22    10    37    1
    23    11    12   ar
    24    11    38    1
    25    12    13   ar
    26    12    39    1
    27    13    14    1
    28    13    18   ar
    29    14    15    1
    30    15    16    1
    31    15    17    1
    32    15    40    1
    33    16    41    1
    34    16    42    1
    35    16    43    1
    36    17    44    1
    37    17    45    1
    38    17    46    1
    39    18    47    1
    40    19    20    1
    41    20    21    1
    42    20    48    1
    43    20    49    1
    44    21    22    1
    45    21    50    1
    46    21    51    1
    47    22    23    1
    48    22    28    1
    49    22    24    1
    50    24    25    1
    51    24    52    1
    52    24    53    1
    53    25    26    1
    54    26    27    1
    55    26    54    1
    56    26    55    1
    57    27    28    1
    58    27    56    1
    59    27    57    1
@<TRIPOS>SUBSTRUCTURE
     1 ZINC001492779707        1 TEMP              0 ****  ****    0 ROOT


##########                                Name:    ZINC000766421809
##########                DOCK_Rotatable_Bonds:                   7
##########                         Heavy_Atoms:                  26
##########                    Molecular_Weight:             358.372
##########                DOCK_Rotatable_Bonds:                   7
##########                       Formal_Charge:         4.61936e-07
##########                     HBond_Acceptors:                   8
##########                        HBond_Donors:                   0
##########                         Heavy_Atoms:                  26
##########                          Grid_Score:          -35.081993
##########                     Grid_vdw_energy:          -34.661926
##########                      Grid_es_energy:           -0.420068
##########           Internal_energy_repulsive:            6.238323

@<TRIPOS>MOLECULE
ZINC000766421809
 45 47 1 0 0
SMALL
USER_CHARGES


@<TRIPOS>ATOM
      1 C1        -13.9737   -0.7019   50.0210 C.3     1  ZINC000766421809   -0.0700
      2 C2        -13.3584   -1.5170   51.1292 C.2     1  ZINC000766421809    0.0700
      3 N3        -12.1318   -1.4087   51.5711 N.2     1  ZINC000766421809   -0.2900
      4 N4        -11.9540   -2.3403   52.6019 N.pl3   1  ZINC000766421809   -0.3700
      5 C5        -10.7248   -2.5511   53.3706 C.3     1  ZINC000766421809    0.1000
      6 C6        -13.1149   -3.0095   52.7619 C.2     1  ZINC000766421809    0.0700
      7 C7        -13.3782   -4.1057   53.7619 C.3     1  ZINC000766421809    0.1400
      8 O8        -12.7255   -3.7821   55.0178 O.3     1  ZINC000766421809   -0.3400
      9 C9        -12.9223   -4.6269   56.0422 C.2     1  ZINC000766421809    0.4700
     10 O10       -13.5306   -5.6563   55.8681 O.2     1  ZINC000766421809   -0.5000
     11 C11       -12.3844   -4.2915   57.4094 C.3     1  ZINC000766421809   -0.1100
     12 C12       -11.1281   -3.4300   57.2659 C.3     1  ZINC000766421809   -0.0200
     13 C13       -10.5581   -3.1418   58.6308 C.2     1  ZINC000766421809    0.1900
     14 N14       -10.8279   -2.1043   59.3832 N.2     1  ZINC000766421809   -0.4700
     15 C15       -10.0921   -2.2685   60.5059 C.2     1  ZINC000766421809    0.2200
     16 C16       -10.0497   -1.3534   61.6731 C.ar    1  ZINC000766421809   -0.0300
     17 C17        -8.8456   -1.1199   62.3344 C.ar    1  ZINC000766421809   -0.0500
     18 C18        -8.8104   -0.2678   63.4191 C.ar    1  ZINC000766421809   -0.1500
     19 C19        -9.9702    0.3548   63.8512 C.ar    1  ZINC000766421809    0.1200
     20 F20        -9.9315    1.1881   64.9139 F       1  ZINC000766421809   -0.1300
     21 C21       -11.1697    0.1258   63.1961 C.ar    1  ZINC000766421809   -0.1200
     22 C22       -12.4279    0.8067   63.6701 C.3     1  ZINC000766421809   -0.1200
     23 C23       -11.2129   -0.7205   62.1076 C.ar    1  ZINC000766421809   -0.0600
     24 N24        -9.4254   -3.3854   60.3703 N.2     1  ZINC000766421809   -0.3700
     25 O25        -9.6865   -3.8998   59.3034 O.3     1  ZINC000766421809    0.0900
     26 C26       -14.0020   -2.5159   51.8671 C.2     1  ZINC000766421809   -0.2400
     27 H27       -14.4264    0.1970   50.4394 H       1  ZINC000766421809    0.0800
     28 H28       -13.2015   -0.4204   49.3051 H       1  ZINC000766421809    0.0700
     29 H29       -14.7385   -1.2928   49.5169 H       1  ZINC000766421809    0.0800
     30 H30       -10.7287   -1.9031   54.2470 H       1  ZINC000766421809    0.0800
     31 H31       -10.6692   -3.5923   53.6888 H       1  ZINC000766421809    0.0900
     32 H32        -9.8618   -2.3150   52.7480 H       1  ZINC000766421809    0.0900
     33 H33       -14.4520   -4.1993   53.9239 H       1  ZINC000766421809    0.0900
     34 H34       -12.9849   -5.0478   53.3801 H       1  ZINC000766421809    0.0900
     35 H35       -13.1392   -3.7423   57.9722 H       1  ZINC000766421809    0.1200
     36 H36       -12.1354   -5.2118   57.9377 H       1  ZINC000766421809    0.1200
     37 H37       -10.3885   -3.9628   56.6684 H       1  ZINC000766421809    0.1200
     38 H38       -11.3851   -2.4919   56.7740 H       1  ZINC000766421809    0.1200
     39 H39        -7.9412   -1.6054   61.9985 H       1  ZINC000766421809    0.1500
     40 H40        -7.8776   -0.0863   63.9321 H       1  ZINC000766421809    0.1500
     41 H41       -12.5396    1.7617   63.1568 H       1  ZINC000766421809    0.0800
     42 H42       -13.2880    0.1739   63.4513 H       1  ZINC000766421809    0.0800
     43 H43       -12.3660    0.9768   64.7449 H       1  ZINC000766421809    0.0700
     44 H44       -12.1482   -0.8984   61.5977 H       1  ZINC000766421809    0.1400
     45 H45       -15.0244   -2.8404   51.7408 H       1  ZINC000766421809    0.1500
@<TRIPOS>BOND
     1     1     2    1
     2     1    27    1
     3     1    28    1
     4     1    29    1
     5     2    26    1
     6     2     3    2
     7     3     4    1
     8     4     5    1
     9     4     6    1
    10     5    30    1
    11     5    31    1
    12     5    32    1
    13     6     7    1
    14     6    26    2
    15     7     8    1
    16     7    33    1
    17     7    34    1
    18     8     9    1
    19     9    10    2
    20     9    11    1
    21    11    12    1
    22    11    35    1
    23    11    36    1
    24    12    13    1
    25    12    37    1
    26    12    38    1
    27    13    25    1
    28    13    14    2
    29    14    15    1
    30    15    16    1
    31    15    24    2
    32    16    23   ar
    33    16    17   ar
    34    17    18   ar
    35    17    39    1
    36    18    19   ar
    37    18    40    1
    38    19    20    1
    39    19    21   ar
    40    21    22    1
    41    21    23   ar
    42    22    41    1
    43    22    42    1
    44    22    43    1
    45    23    44    1
    46    24    25    1
    47    26    45    1
@<TRIPOS>SUBSTRUCTURE
     1 ZINC000766421809        1 TEMP              0 ****  ****    0 ROOT


##########                                Name:    ZINC000573150059
##########                DOCK_Rotatable_Bonds:                   7
##########                         Heavy_Atoms:                  23
##########                    Molecular_Weight:             378.269
##########                DOCK_Rotatable_Bonds:                   7
##########                       Formal_Charge:        -2.98023e-07
##########                     HBond_Acceptors:                   5
##########                        HBond_Donors:                   2
##########                         Heavy_Atoms:                  23
##########                          Grid_Score:          -35.002392
##########                     Grid_vdw_energy:          -35.174351
##########                      Grid_es_energy:            0.171958
##########           Internal_energy_repulsive:            9.771266

@<TRIPOS>MOLECULE
ZINC000573150059
 43 44 1 0 0
SMALL
USER_CHARGES


@<TRIPOS>ATOM
      1 C1         -6.4139    0.8294   50.7364 C.3     1  ZINC000573150059    0.0300
      2 O2         -7.7311    0.3757   51.0546 O.3     1  ZINC000573150059   -0.3600
      3 C3         -7.9356    0.1131   52.4442 C.3     1  ZINC000573150059    0.0700
      4 H4         -7.2074   -0.6224   52.7860 H       1  ZINC000573150059    0.0900
      5 C5         -7.7631    1.4090   53.2390 C.3     1  ZINC000573150059   -0.1700
      6 C6         -9.3280   -0.4236   52.6545 C.2     1  ZINC000573150059    0.5100
      7 O7        -10.2215    0.3240   52.9920 O.2     1  ZINC000573150059   -0.4900
      8 N8         -9.5804   -1.7341   52.4676 N.am    1  ZINC000573150059   -0.6700
      9 C9        -10.8733   -2.2324   52.6628 C.ar    1  ZINC000573150059    0.1900
     10 C10       -11.9276   -1.7486   51.8984 C.ar    1  ZINC000573150059   -0.2000
     11 C11       -13.2047   -2.2399   52.0903 C.ar    1  ZINC000573150059   -0.0500
     12 C12       -13.4376   -3.2137   53.0419 C.ar    1  ZINC000573150059   -0.2200
     13 C13       -12.3872   -3.7023   53.8097 C.ar    1  ZINC000573150059    0.2400
     14 N14       -12.6232   -4.6872   54.7714 N.pl3   1  ZINC000573150059   -0.7300
     15 C15       -13.3887   -4.3643   55.9781 C.3     1  ZINC000573150059    0.2000
     16 H16       -14.0938   -3.5630   55.7573 H       1  ZINC000573150059    0.1000
     17 C17       -14.1550   -5.6044   56.4430 C.3     1  ZINC000573150059   -0.1700
     18 C18       -12.4464   -3.9188   57.0665 C.ar    1  ZINC000573150059    0.1400
     19 C19       -12.6356   -2.6916   57.6731 C.ar    1  ZINC000573150059   -0.1600
     20 C20       -11.7636   -2.2908   58.6739 C.ar    1  ZINC000573150059   -0.0400
     21 C21       -10.7288   -3.1439   59.0284 C.ar    1  ZINC000573150059   -0.1500
     22 Br22       -9.5069   -2.6548   60.3862 Br      1  ZINC000573150059   -0.0300
     23 C23       -10.6027   -4.3571   58.3762 C.ar    1  ZINC000573150059    0.1400
     24 N24       -11.4543   -4.7069   57.4324 N.ar    1  ZINC000573150059   -0.4700
     25 C25       -11.1027   -3.2143   53.6160 C.ar    1  ZINC000573150059   -0.1900
     26 H26        -6.2095    1.7562   51.2725 H       1  ZINC000573150059    0.0500
     27 H27        -5.6877    0.0717   51.0308 H       1  ZINC000573150059    0.0400
     28 H28        -6.3397    1.0063   49.6634 H       1  ZINC000573150059    0.0900
     29 H29        -8.4913    2.1445   52.8972 H       1  ZINC000573150059    0.0700
     30 H30        -7.9191    1.2087   54.2990 H       1  ZINC000573150059    0.0700
     31 H31        -6.7560    1.7972   53.0870 H       1  ZINC000573150059    0.0700
     32 H32        -8.8659   -2.3320   52.1976 H       1  ZINC000573150059    0.4100
     33 H33       -11.7488   -0.9872   51.1535 H       1  ZINC000573150059    0.1200
     34 H34       -14.0227   -1.8616   51.4951 H       1  ZINC000573150059    0.1300
     35 H35       -14.4370   -3.5955   53.1897 H       1  ZINC000573150059    0.1200
     36 H36       -12.2802   -5.5851   54.6404 H       1  ZINC000573150059    0.4100
     37 H37       -13.4498   -6.4057   56.6637 H       1  ZINC000573150059    0.0600
     38 H38       -14.7245   -5.3641   57.3407 H       1  ZINC000573150059    0.0700
     39 H39       -14.8365   -5.9267   55.6557 H       1  ZINC000573150059    0.0700
     40 H40       -13.4523   -2.0527   57.3713 H       1  ZINC000573150059    0.1500
     41 H41       -11.8869   -1.3370   59.1653 H       1  ZINC000573150059    0.1500
     42 H42        -9.7997   -5.0272   58.6458 H       1  ZINC000573150059    0.1700
     43 H43       -10.2846   -3.5925   54.2109 H       1  ZINC000573150059    0.1400
@<TRIPOS>BOND
     1     1     2    1
     2     1    26    1
     3     1    27    1
     4     1    28    1
     5     2     3    1
     6     3     4    1
     7     3     5    1
     8     3     6    1
     9     5    29    1
    10     5    30    1
    11     5    31    1
    12     6     7    2
    13     6     8   am
    14     8     9    1
    15     8    32    1
    16     9    25   ar
    17     9    10   ar
    18    10    11   ar
    19    10    33    1
    20    11    12   ar
    21    11    34    1
    22    12    13   ar
    23    12    35    1
    24    13    14    1
    25    13    25   ar
    26    14    15    1
    27    14    36    1
    28    15    16    1
    29    15    17    1
    30    15    18    1
    31    17    37    1
    32    17    38    1
    33    17    39    1
    34    18    24   ar
    35    18    19   ar
    36    19    20   ar
    37    19    40    1
    38    20    21   ar
    39    20    41    1
    40    21    22    1
    41    21    23   ar
    42    23    24   ar
    43    23    42    1
    44    25    43    1
@<TRIPOS>SUBSTRUCTURE
     1 ZINC000573150059        1 TEMP              0 ****  ****    0 ROOT


##########                                Name:    ZINC000269356812
##########                DOCK_Rotatable_Bonds:                  10
##########                         Heavy_Atoms:                  25
##########                    Molecular_Weight:             387.431
##########                DOCK_Rotatable_Bonds:                  10
##########                       Formal_Charge:          0.00999978
##########                     HBond_Acceptors:                  10
##########                        HBond_Donors:                   3
##########                         Heavy_Atoms:                  25
##########                          Grid_Score:          -35.001938
##########                     Grid_vdw_energy:          -33.294159
##########                      Grid_es_energy:           -1.707781
##########           Internal_energy_repulsive:            9.472747

@<TRIPOS>MOLECULE
ZINC000269356812
 40 41 1 0 0
SMALL
USER_CHARGES


@<TRIPOS>ATOM
      1 C1        -13.8659   -4.9856   55.6680 C.3     1  ZINC000269356812   -0.1400
      2 C2        -13.0385   -3.8056   56.1818 C.3     1  ZINC000269356812    0.2000
      3 O3        -13.8782   -2.9259   56.9321 O.3     1  ZINC000269356812   -0.5400
      4 C4        -11.9127   -4.3244   57.0788 C.3     1  ZINC000269356812    0.0900
      5 N5        -11.8409   -3.5086   58.2935 N.am    1  ZINC000269356812   -0.6900
      6 C6        -10.6437   -3.1144   58.7707 C.2     1  ZINC000269356812    0.5100
      7 O7         -9.6250   -3.4366   58.1950 O.2     1  ZINC000269356812   -0.5100
      8 C8        -10.5706   -2.2813   60.0078 C.2     1  ZINC000269356812    0.5100
      9 O9        -11.5722   -2.0783   60.6629 O.2     1  ZINC000269356812   -0.4900
     10 N10        -9.3926   -1.7547   60.3970 N.am    1  ZINC000269356812   -0.6400
     11 C11        -9.3240   -0.9741   61.5562 C.ar    1  ZINC000269356812    0.0900
     12 C12       -10.0334    0.2235   61.6436 C.ar    1  ZINC000269356812   -0.0600
     13 C13        -9.9370    0.9624   62.8079 C.ar    1  ZINC000269356812   -0.1200
     14 C14        -9.1408    0.4903   63.8470 C.ar    1  ZINC000269356812    0.1000
     15 S15        -9.0098    1.4223   65.3366 S.3     1  ZINC000269356812   -0.0600
     16 C16        -7.7932    0.4830   66.3000 C.3     1  ZINC000269356812    0.2900
     17 F17        -7.1505    1.3390   67.2009 F       1  ZINC000269356812   -0.1700
     18 F18        -8.4430   -0.5348   67.0065 F       1  ZINC000269356812   -0.1700
     19 N19        -8.4809   -0.6520   63.7291 N.ar    1  ZINC000269356812   -0.4600
     20 C20        -8.5542   -1.3850   62.6349 C.ar    1  ZINC000269356812    0.1100
     21 C21       -12.4468   -3.0604   55.0133 C.2     1  ZINC000269356812   -0.2300
     22 C22       -11.3512   -2.3009   55.0608 C.2     1  ZINC000269356812   -0.1100
     23 C23       -10.9961   -1.7137   53.8586 C.2     1  ZINC000269356812   -0.1400
     24 C24       -11.8031   -1.9963   52.8349 C.2     1  ZINC000269356812   -0.2000
     25 S25       -13.0907   -3.0651   53.3766 S.3     1  ZINC000269356812    0.1100
     26 H26       -14.6680   -4.6160   55.0290 H       1  ZINC000269356812    0.0800
     27 H27       -13.2254   -5.6566   55.0957 H       1  ZINC000269356812    0.0800
     28 H28       -14.2939   -5.5247   56.5132 H       1  ZINC000269356812    0.0700
     29 H29       -14.4784   -2.3967   56.3891 H       1  ZINC000269356812    0.3800
     30 H30       -12.1120   -5.3614   57.3488 H       1  ZINC000269356812    0.0900
     31 H31       -10.9649   -4.2639   56.5439 H       1  ZINC000269356812    0.0900
     32 H32       -12.6550   -3.2521   58.7543 H       1  ZINC000269356812    0.4200
     33 H33        -8.5922   -1.9169   59.8734 H       1  ZINC000269356812    0.4300
     34 H34       -10.6436    0.5657   60.8209 H       1  ZINC000269356812    0.1600
     35 H35       -10.4726    1.8948   62.9096 H       1  ZINC000269356812    0.1500
     36 H36        -7.0566    0.0448   65.6266 H       1  ZINC000269356812    0.1500
     37 H37        -8.0018   -2.3111   62.5747 H       1  ZINC000269356812    0.1700
     38 H38       -10.7845   -2.1548   55.9684 H       1  ZINC000269356812    0.1500
     39 H39       -10.1312   -1.0748   53.7574 H       1  ZINC000269356812    0.1400
     40 H40       -11.6823   -1.6281   51.8268 H       1  ZINC000269356812    0.1700
@<TRIPOS>BOND
     1     1     2    1
     2     1    26    1
     3     1    27    1
     4     1    28    1
     5     2     3    1
     6     2     4    1
     7     2    21    1
     8     3    29    1
     9     4     5    1
    10     4    30    1
    11     4    31    1
    12     5     6   am
    13     5    32    1
    14     6     7    2
    15     6     8    1
    16     8     9    2
    17     8    10   am
    18    10    11    1
    19    10    33    1
    20    11    20   ar
    21    11    12   ar
    22    12    13   ar
    23    12    34    1
    24    13    14   ar
    25    13    35    1
    26    14    15    1
    27    14    19   ar
    28    15    16    1
    29    16    17    1
    30    16    18    1
    31    16    36    1
    32    19    20   ar
    33    20    37    1
    34    21    25    1
    35    21    22    2
    36    22    23    1
    37    22    38    1
    38    23    24    2
    39    23    39    1
    40    24    25    1
    41    24    40    1
@<TRIPOS>SUBSTRUCTURE
     1 ZINC000269356812        1 TEMP              0 ****  ****    0 ROOT


##########                                Name:    ZINC001220171460
##########                DOCK_Rotatable_Bonds:                  10
##########                         Heavy_Atoms:                  25
##########                    Molecular_Weight:             383.773
##########                DOCK_Rotatable_Bonds:                  10
##########                       Formal_Charge:           0.0199996
##########                     HBond_Acceptors:                  10
##########                        HBond_Donors:                   3
##########                         Heavy_Atoms:                  25
##########                          Grid_Score:          -34.997147
##########                     Grid_vdw_energy:          -29.193140
##########                      Grid_es_energy:           -5.804008
##########           Internal_energy_repulsive:            9.089494

@<TRIPOS>MOLECULE
ZINC001220171460
 43 44 1 0 0
SMALL
USER_CHARGES


@<TRIPOS>ATOM
      1 C1        -10.0549    0.9244   58.7098 C.3     1  ZINC001220171460    0.0200
      2 O2         -9.0862   -0.1260   58.7284 O.3     1  ZINC001220171460   -0.3100
      3 C3         -9.5357   -1.3850   58.4768 C.ar    1  ZINC001220171460    0.1000
      4 C4        -10.2504   -1.6480   57.3203 C.ar    1  ZINC001220171460   -0.1500
      5 C5        -10.7074   -2.9290   57.0648 C.ar    1  ZINC001220171460   -0.0600
      6 Cl6       -11.6028   -3.2563   55.6139 Cl      1  ZINC001220171460   -0.0400
      7 C7        -10.4515   -3.9508   57.9645 C.ar    1  ZINC001220171460    0.1000
      8 F8        -10.8990   -5.2001   57.7113 F       1  ZINC001220171460   -0.1200
      9 C9         -9.7376   -3.6938   59.1221 C.ar    1  ZINC001220171460   -0.1200
     10 C10        -9.2727   -2.4129   59.3795 C.ar    1  ZINC001220171460    0.1800
     11 N11        -8.5494   -2.1504   60.5515 N.am    1  ZINC001220171460   -0.6700
     12 C12        -9.1400   -1.5075   61.5782 C.2     1  ZINC001220171460    0.7100
     13 O13       -10.3003   -1.1552   61.4881 O.2     1  ZINC001220171460   -0.5700
     14 N14        -8.4447   -1.2552   62.7049 N.am    1  ZINC001220171460   -0.7400
     15 C15        -9.0862   -0.5549   63.8203 C.3     1  ZINC001220171460    0.1400
     16 C16        -8.8198    0.9470   63.7003 C.3     1  ZINC001220171460   -0.1400
     17 C17        -9.4248    1.6701   64.9054 C.3     1  ZINC001220171460    0.0500
     18 H18        -9.7009    0.9400   65.6662 H       1  ZINC001220171460    0.1000
     19 N19        -8.4382    2.6064   65.4605 N.3     1  ZINC001220171460   -0.6500
     20 C20        -8.0079    2.1846   66.8002 C.3     1  ZINC001220171460    0.0100
     21 C21        -7.0291    1.0122   66.8914 C.3     1  ZINC001220171460   -0.2000
     22 C22        -6.5484    2.4348   67.1848 C.3     1  ZINC001220171460   -0.1600
     23 C23       -10.6695    2.4428   64.4645 C.3     1  ZINC001220171460    0.4600
     24 F24       -10.3095    3.4034   63.5133 F       1  ZINC001220171460   -0.1800
     25 F25       -11.5949    1.5557   63.9042 F       1  ZINC001220171460   -0.1800
     26 F26       -11.2423    3.0758   65.5729 F       1  ZINC001220171460   -0.1700
     27 H27       -10.5213    0.9711   57.7257 H       1  ZINC001220171460    0.0600
     28 H28       -10.8170    0.7292   59.4642 H       1  ZINC001220171460    0.0600
     29 H29        -9.5652    1.8741   58.9252 H       1  ZINC001220171460    0.1100
     30 H30       -10.4516   -0.8530   56.6175 H       1  ZINC001220171460    0.1500
     31 H31        -9.5390   -4.4913   59.8227 H       1  ZINC001220171460    0.1800
     32 H32        -7.6237   -2.4316   60.6233 H       1  ZINC001220171460    0.4200
     33 H33        -7.5194   -1.5375   62.7772 H       1  ZINC001220171460    0.4000
     34 H34       -10.1606   -0.7366   63.7937 H       1  ZINC001220171460    0.0800
     35 H35        -8.6789   -0.9220   64.7623 H       1  ZINC001220171460    0.0700
     36 H36        -7.7448    1.1242   63.6724 H       1  ZINC001220171460    0.1000
     37 H37        -9.2743    1.3245   62.7843 H       1  ZINC001220171460    0.1000
     38 H38        -7.6476    2.7073   64.8419 H       1  ZINC001220171460    0.3600
     39 H39        -8.7582    2.2765   67.5857 H       1  ZINC001220171460    0.1200
     40 H40        -7.1353    0.3325   67.7369 H       1  ZINC001220171460    0.1000
     41 H41        -6.7045    0.5539   65.9572 H       1  ZINC001220171460    0.1000
     42 H42        -5.9074    2.9123   66.4437 H       1  ZINC001220171460    0.1000
     43 H43        -6.3383    2.6909   68.2232 H       1  ZINC001220171460    0.1000
@<TRIPOS>BOND
     1     1     2    1
     2     1    27    1
     3     1    28    1
     4     1    29    1
     5     2     3    1
     6     3    10   ar
     7     3     4   ar
     8     4     5   ar
     9     4    30    1
    10     5     6    1
    11     5     7   ar
    12     7     8    1
    13     7     9   ar
    14     9    10   ar
    15     9    31    1
    16    10    11    1
    17    11    12   am
    18    11    32    1
    19    12    13    2
    20    12    14   am
    21    14    15    1
    22    14    33    1
    23    15    16    1
    24    15    34    1
    25    15    35    1
    26    16    17    1
    27    16    36    1
    28    16    37    1
    29    17    18    1
    30    17    19    1
    31    17    23    1
    32    19    20    1
    33    19    38    1
    34    20    22    1
    35    20    21    1
    36    20    39    1
    37    21    22    1
    38    21    40    1
    39    21    41    1
    40    22    42    1
    41    22    43    1
    42    23    24    1
    43    23    25    1
    44    23    26    1
@<TRIPOS>SUBSTRUCTURE
     1 ZINC001220171460        1 TEMP              0 ****  ****    0 ROOT


##########                                Name:    ZINC000481050680
##########                DOCK_Rotatable_Bonds:                   7
##########                         Heavy_Atoms:                  29
##########                    Molecular_Weight:              412.46
##########                DOCK_Rotatable_Bonds:                   7
##########                       Formal_Charge:          -0.0199997
##########                     HBond_Acceptors:                   7
##########                        HBond_Donors:                   1
##########                         Heavy_Atoms:                  29
##########                          Grid_Score:          -34.995659
##########                     Grid_vdw_energy:          -34.204643
##########                      Grid_es_energy:           -0.791016
##########           Internal_energy_repulsive:           14.882597

@<TRIPOS>MOLECULE
ZINC000481050680
 47 49 1 0 0
SMALL
USER_CHARGES


@<TRIPOS>ATOM
      1 N1         -9.5426    1.7839   65.2599 N.1     1  ZINC000481050680   -0.3900
      2 C2         -9.4643    1.1967   64.2907 C.1     1  ZINC000481050680    0.2500
      3 C3         -9.3658    0.4564   63.0688 C.ar    1  ZINC000481050680    0.0200
      4 C4         -8.8641   -0.8464   63.0771 C.ar    1  ZINC000481050680   -0.0800
      5 C5         -8.7717   -1.5553   61.8970 C.ar    1  ZINC000481050680   -0.0800
      6 C6         -9.1747   -0.9789   60.7062 C.ar    1  ZINC000481050680   -0.1000
      7 C7         -9.0707   -1.7597   59.4215 C.3     1  ZINC000481050680   -0.5900
      8 S8        -10.2616   -3.1278   59.4474 S.o2    1  ZINC000481050680    2.6000
      9 O9         -9.5858   -4.3759   59.5168 O.2     1  ZINC000481050680   -0.9300
     10 O10       -11.3434   -2.8308   60.3196 O.2     1  ZINC000481050680   -0.9400
     11 N11       -10.9395   -3.1141   57.9365 N.am    1  ZINC000481050680   -1.1100
     12 C12       -11.6568   -1.9264   57.4663 C.3     1  ZINC000481050680    0.2100
     13 H13       -11.3133   -1.0520   58.0190 H       1  ZINC000481050680    0.1000
     14 C14       -13.1584   -2.1149   57.6920 C.3     1  ZINC000481050680   -0.0800
     15 C15       -13.6478   -3.2785   56.8690 C.ar    1  ZINC000481050680   -0.0900
     16 C16       -13.5705   -4.5631   57.3738 C.ar    1  ZINC000481050680   -0.1200
     17 C17       -14.0194   -5.6306   56.6189 C.ar    1  ZINC000481050680   -0.1200
     18 C18       -14.5460   -5.4134   55.3594 C.ar    1  ZINC000481050680   -0.1200
     19 C19       -14.6241   -4.1288   54.8549 C.ar    1  ZINC000481050680   -0.1200
     20 C20       -14.1792   -3.0608   55.6116 C.ar    1  ZINC000481050680   -0.1200
     21 C21       -11.3907   -1.7280   55.9964 C.ar    1  ZINC000481050680   -0.1300
     22 C22       -11.0944   -2.8139   55.1949 C.ar    1  ZINC000481050680   -0.0700
     23 C23       -10.8502   -2.6321   53.8461 C.ar    1  ZINC000481050680   -0.1300
     24 C24       -10.9016   -1.3642   53.2981 C.ar    1  ZINC000481050680   -0.0900
     25 C25       -11.1973   -0.2765   54.0980 C.ar    1  ZINC000481050680   -0.1500
     26 C26       -11.4486   -0.4580   55.4473 C.ar    1  ZINC000481050680    0.1100
     27 F27       -11.7377    0.6044   56.2300 F       1  ZINC000481050680   -0.1400
     28 C28        -9.6743    0.3139   60.6895 C.ar    1  ZINC000481050680    0.1200
     29 F29       -10.0665    0.8704   59.5226 F       1  ZINC000481050680   -0.1200
     30 C30        -9.7764    1.0325   61.8650 C.ar    1  ZINC000481050680   -0.1000
     31 H31        -8.5485   -1.2986   64.0058 H       1  ZINC000481050680    0.1500
     32 H32        -8.3833   -2.5631   61.9031 H       1  ZINC000481050680    0.1500
     33 H33        -9.2891   -1.1037   58.5789 H       1  ZINC000481050680    0.1500
     34 H34        -8.0614   -2.1585   59.3194 H       1  ZINC000481050680    0.1500
     35 H35       -10.8616   -3.8925   57.3628 H       1  ZINC000481050680    0.4200
     36 H36       -13.3450   -2.3123   58.7475 H       1  ZINC000481050680    0.0900
     37 H37       -13.6871   -1.2100   57.3925 H       1  ZINC000481050680    0.0900
     38 H38       -13.1590   -4.7328   58.3579 H       1  ZINC000481050680    0.1200
     39 H39       -13.9584   -6.6342   57.0131 H       1  ZINC000481050680    0.1200
     40 H40       -14.8961   -6.2475   54.7693 H       1  ZINC000481050680    0.1200
     41 H41       -15.0352   -3.9592   53.8707 H       1  ZINC000481050680    0.1200
     42 H42       -14.2401   -2.0572   55.2175 H       1  ZINC000481050680    0.1200
     43 H43       -11.0533   -3.8049   55.6222 H       1  ZINC000481050680    0.1300
     44 H44       -10.6187   -3.4815   53.2205 H       1  ZINC000481050680    0.1300
     45 H45       -10.7103   -1.2234   52.2445 H       1  ZINC000481050680    0.1300
     46 H46       -11.2368    0.7142   53.6696 H       1  ZINC000481050680    0.1400
     47 H47       -10.1659    2.0397   61.8519 H       1  ZINC000481050680    0.1600
@<TRIPOS>BOND
     1     1     2    3
     2     2     3    1
     3     3    30   ar
     4     3     4   ar
     5     4     5   ar
     6     4    31    1
     7     5     6   ar
     8     5    32    1
     9     6     7    1
    10     6    28   ar
    11     7     8    1
    12     7    33    1
    13     7    34    1
    14     8     9    2
    15     8    10    2
    16     8    11   am
    17    11    12    1
    18    11    35    1
    19    12    13    1
    20    12    14    1
    21    12    21    1
    22    14    15    1
    23    14    36    1
    24    14    37    1
    25    15    20   ar
    26    15    16   ar
    27    16    17   ar
    28    16    38    1
    29    17    18   ar
    30    17    39    1
    31    18    19   ar
    32    18    40    1
    33    19    20   ar
    34    19    41    1
    35    20    42    1
    36    21    26   ar
    37    21    22   ar
    38    22    23   ar
    39    22    43    1
    40    23    24   ar
    41    23    44    1
    42    24    25   ar
    43    24    45    1
    44    25    26   ar
    45    25    46    1
    46    26    27    1
    47    28    29    1
    48    28    30   ar
    49    30    47    1
@<TRIPOS>SUBSTRUCTURE
     1 ZINC000481050680        1 TEMP              0 ****  ****    0 ROOT


##########                                Name:    ZINC000279331220
##########                DOCK_Rotatable_Bonds:                   9
##########                         Heavy_Atoms:                  24
##########                    Molecular_Weight:             328.411
##########                DOCK_Rotatable_Bonds:                   9
##########                       Formal_Charge:          -0.0100001
##########                     HBond_Acceptors:                   5
##########                        HBond_Donors:                   0
##########                         Heavy_Atoms:                  24
##########                          Grid_Score:          -34.991772
##########                     Grid_vdw_energy:          -35.510124
##########                      Grid_es_energy:            0.518354
##########           Internal_energy_repulsive:           18.380571

@<TRIPOS>MOLECULE
ZINC000279331220
 48 49 1 0 0
SMALL
USER_CHARGES


@<TRIPOS>ATOM
      1 C1         -9.0970    0.7460   56.2213 C.3     1  ZINC000279331220   -0.1500
      2 C2        -10.4324    0.4578   55.5325 C.3     1  ZINC000279331220    0.0500
      3 O3        -10.3961    0.9587   54.1947 O.3     1  ZINC000279331220   -0.3000
      4 C4         -9.4468    0.4439   53.3681 C.ar    1  ZINC000279331220    0.1000
      5 C5         -8.3283    1.1940   53.0436 C.ar    1  ZINC000279331220   -0.1700
      6 C6         -7.3637    0.6689   52.2033 C.ar    1  ZINC000279331220   -0.1200
      7 C7         -7.5126   -0.6038   51.6853 C.ar    1  ZINC000279331220   -0.1200
      8 C8         -8.6270   -1.3577   52.0050 C.ar    1  ZINC000279331220   -0.1700
      9 C9         -9.5939   -0.8401   52.8511 C.ar    1  ZINC000279331220    0.1000
     10 O10       -10.6904   -1.5802   53.1664 O.3     1  ZINC000279331220   -0.3000
     11 C11       -10.6352   -2.9781   52.8753 C.3     1  ZINC000279331220    0.0600
     12 C12       -11.9342   -3.6457   53.3310 C.3     1  ZINC000279331220   -0.1100
     13 C13       -12.0482   -3.5534   54.8539 C.3     1  ZINC000279331220   -0.1300
     14 C14       -13.0788   -4.5390   55.3412 C.2     1  ZINC000279331220    0.5200
     15 O15       -13.9112   -4.9748   54.5745 O.2     1  ZINC000279331220   -0.5200
     16 N16       -13.0754   -4.9362   56.6291 N.am    1  ZINC000279331220   -0.5700
     17 C17       -14.0763   -5.8957   57.1023 C.3     1  ZINC000279331220    0.0800
     18 C18       -12.1196   -4.4341   57.5110 C.ar    1  ZINC000279331220    0.3400
     19 N19       -10.9640   -5.0633   57.6532 N.ar    1  ZINC000279331220   -0.4800
     20 C20       -10.0325   -4.6220   58.4767 C.ar    1  ZINC000279331220    0.1100
     21 C21       -10.2327   -3.4789   59.2249 C.ar    1  ZINC000279331220   -0.1600
     22 C22       -11.4318   -2.7893   59.1048 C.ar    1  ZINC000279331220   -0.0700
     23 C23       -12.3870   -3.2737   58.2288 C.ar    1  ZINC000279331220   -0.1200
     24 C24       -13.7037   -2.5597   58.0635 C.3     1  ZINC000279331220   -0.1100
     25 H25        -9.1246    0.3639   57.2417 H       1  ZINC000279331220    0.0800
     26 H26        -8.2920    0.2575   55.6721 H       1  ZINC000279331220    0.0700
     27 H27        -8.9228    1.8218   56.2407 H       1  ZINC000279331220    0.0700
     28 H28       -10.6065   -0.6181   55.5131 H       1  ZINC000279331220    0.0600
     29 H29       -11.2374    0.9462   56.0817 H       1  ZINC000279331220    0.0600
     30 H30        -8.2099    2.1890   53.4465 H       1  ZINC000279331220    0.1300
     31 H31        -6.4921    1.2547   51.9511 H       1  ZINC000279331220    0.1300
     32 H32        -6.7571   -1.0102   51.0292 H       1  ZINC000279331220    0.1300
     33 H33        -8.7412   -2.3517   51.5984 H       1  ZINC000279331220    0.1300
     34 H34       -10.5103   -3.1211   51.8020 H       1  ZINC000279331220    0.0600
     35 H35        -9.7924   -3.4259   53.4020 H       1  ZINC000279331220    0.0600
     36 H36       -12.7834   -3.1396   52.8718 H       1  ZINC000279331220    0.0800
     37 H37       -11.9294   -4.6932   53.0298 H       1  ZINC000279331220    0.0800
     38 H38       -11.0830   -3.7839   55.3051 H       1  ZINC000279331220    0.1000
     39 H39       -12.3489   -2.5442   55.1353 H       1  ZINC000279331220    0.1000
     40 H40       -13.7349   -6.9095   56.8936 H       1  ZINC000279331220    0.0700
     41 H41       -14.2174   -5.7737   58.1762 H       1  ZINC000279331220    0.0800
     42 H42       -15.0213   -5.7177   56.5891 H       1  ZINC000279331220    0.0800
     43 H43        -9.1016   -5.1619   58.5672 H       1  ZINC000279331220    0.1600
     44 H44        -9.4648   -3.1252   59.8968 H       1  ZINC000279331220    0.1400
     45 H45       -11.6130   -1.8926   59.6789 H       1  ZINC000279331220    0.1400
     46 H46       -13.6455   -1.8828   57.2111 H       1  ZINC000279331220    0.0800
     47 H47       -14.4945   -3.2905   57.8939 H       1  ZINC000279331220    0.0700
     48 H48       -13.9235   -1.9893   58.9660 H       1  ZINC000279331220    0.0700
@<TRIPOS>BOND
     1     1     2    1
     2     1    25    1
     3     1    26    1
     4     1    27    1
     5     2     3    1
     6     2    28    1
     7     2    29    1
     8     3     4    1
     9     4     9   ar
    10     4     5   ar
    11     5     6   ar
    12     5    30    1
    13     6     7   ar
    14     6    31    1
    15     7     8   ar
    16     7    32    1
    17     8     9   ar
    18     8    33    1
    19     9    10    1
    20    10    11    1
    21    11    12    1
    22    11    34    1
    23    11    35    1
    24    12    13    1
    25    12    36    1
    26    12    37    1
    27    13    14    1
    28    13    38    1
    29    13    39    1
    30    14    15    2
    31    14    16   am
    32    16    17    1
    33    16    18    1
    34    17    40    1
    35    17    41    1
    36    17    42    1
    37    18    23   ar
    38    18    19   ar
    39    19    20   ar
    40    20    21   ar
    41    20    43    1
    42    21    22   ar
    43    21    44    1
    44    22    23   ar
    45    22    45    1
    46    23    24    1
    47    24    46    1
    48    24    47    1
    49    24    48    1
@<TRIPOS>SUBSTRUCTURE
     1 ZINC000279331220        1 TEMP              0 ****  ****    0 ROOT


##########                                Name:    ZINC000555499135
##########                DOCK_Rotatable_Bonds:                   8
##########                         Heavy_Atoms:                  26
##########                    Molecular_Weight:             377.554
##########                DOCK_Rotatable_Bonds:                   8
##########                       Formal_Charge:           0.0399999
##########                     HBond_Acceptors:                   7
##########                        HBond_Donors:                   0
##########                         Heavy_Atoms:                  26
##########                          Grid_Score:          -34.990849
##########                     Grid_vdw_energy:          -34.346607
##########                      Grid_es_energy:           -0.644242
##########           Internal_energy_repulsive:           11.231988

@<TRIPOS>MOLECULE
ZINC000555499135
 57 59 1 0 0
SMALL
USER_CHARGES


@<TRIPOS>ATOM
      1 C1        -10.6253    2.7373   63.4040 C.3     1  ZINC000555499135   -0.1500
      2 C2         -9.9847    1.6340   64.2486 C.3     1  ZINC000555499135   -0.0500
      3 C3         -9.7308    0.4246   63.3863 C.2     1  ZINC000555499135   -0.2100
      4 C4         -8.7435   -0.4617   63.5459 C.2     1  ZINC000555499135    0.0300
      5 N5         -8.7345   -1.4357   62.6583 N.2     1  ZINC000555499135   -0.4500
      6 C6         -9.6594   -1.4204   61.7588 C.2     1  ZINC000555499135    0.0400
      7 C7         -9.8145   -2.4439   60.6636 C.3     1  ZINC000555499135    0.1500
      8 N8        -10.3539   -1.7960   59.4607 N.3     1  ZINC000555499135   -0.4500
      9 C9         -9.3299   -0.9751   58.8008 C.3     1  ZINC000555499135    0.0100
     10 C10       -10.8795   -2.7328   58.5851 C.2     1  ZINC000555499135    0.3500
     11 N11       -10.3469   -3.8896   58.2688 N.2     1  ZINC000555499135   -0.3100
     12 N12       -11.1028   -4.5034   57.4299 N.2     1  ZINC000555499135   -0.2900
     13 C13       -12.1538   -3.7807   57.1634 C.2     1  ZINC000555499135    0.2100
     14 C14       -13.2771   -4.1485   56.2286 C.3     1  ZINC000555499135   -0.0300
     15 C15       -13.1393   -3.3541   54.9283 C.3     1  ZINC000555499135   -0.0900
     16 C16       -12.1569   -4.0668   53.9969 C.3     1  ZINC000555499135   -0.1500
     17 C17       -14.5051   -3.2508   54.2465 C.3     1  ZINC000555499135   -0.1500
     18 N18       -12.0514   -2.6293   57.8939 N.pl3   1  ZINC000555499135   -0.4600
     19 C19       -12.9990   -1.5124   57.9218 C.3     1  ZINC000555499135    0.1100
     20 C20       -14.0028   -1.7235   59.0569 C.3     1  ZINC000555499135    0.0700
     21 H21       -14.6870   -2.5297   58.7918 H       1  ZINC000555499135    0.0700
     22 C22       -14.7965   -0.4341   59.2829 C.3     1  ZINC000555499135   -0.1500
     23 C23       -15.7567   -0.6343   60.4595 C.3     1  ZINC000555499135   -0.1200
     24 C24       -14.9523   -1.0462   61.6963 C.3     1  ZINC000555499135   -0.1600
     25 C25       -14.1526   -2.3120   61.3770 C.3     1  ZINC000555499135    0.0600
     26 O26       -13.3030   -2.0669   60.2545 O.3     1  ZINC000555499135   -0.3700
     27 S27       -10.6881   -0.0751   61.9939 S.3     1  ZINC000555499135    0.1200
     28 H28        -9.9538    3.0068   62.5887 H       1  ZINC000555499135    0.0600
     29 H29       -11.5695    2.3789   62.9938 H       1  ZINC000555499135    0.0600
     30 H30       -10.8089    3.6121   64.0277 H       1  ZINC000555499135    0.0700
     31 H31        -9.0406    1.9924   64.6588 H       1  ZINC000555499135    0.0900
     32 H32       -10.6562    1.3646   65.0639 H       1  ZINC000555499135    0.0800
     33 H33        -8.0127   -0.3859   64.3375 H       1  ZINC000555499135    0.1800
     34 H34        -8.8429   -2.8822   60.4356 H       1  ZINC000555499135    0.0800
     35 H35       -10.4981   -3.2268   60.9921 H       1  ZINC000555499135    0.1200
     36 H36        -8.5461   -1.6209   58.4049 H       1  ZINC000555499135    0.0500
     37 H37        -9.7847   -0.4135   57.9847 H       1  ZINC000555499135    0.0800
     38 H38        -8.8991   -0.2817   59.5231 H       1  ZINC000555499135    0.0900
     39 H39       -13.2326   -5.2153   56.0092 H       1  ZINC000555499135    0.1000
     40 H40       -14.2322   -3.9137   56.6984 H       1  ZINC000555499135    0.1000
     41 H41       -12.7679   -2.3538   55.1514 H       1  ZINC000555499135    0.0800
     42 H42       -11.1951   -4.1760   54.4980 H       1  ZINC000555499135    0.0500
     43 H43       -12.5476   -5.0519   53.7418 H       1  ZINC000555499135    0.0600
     44 H44       -12.0280   -3.4804   53.0872 H       1  ZINC000555499135    0.0600
     45 H45       -15.2049   -2.7430   54.9102 H       1  ZINC000555499135    0.0600
     46 H46       -14.4069   -2.6848   53.3202 H       1  ZINC000555499135    0.0600
     47 H47       -14.8764   -4.2511   54.0236 H       1  ZINC000555499135    0.0600
     48 H48       -12.4574   -0.5805   58.0844 H       1  ZINC000555499135    0.1100
     49 H49       -13.5302   -1.4628   56.9714 H       1  ZINC000555499135    0.1200
     50 H50       -14.1096    0.3817   59.5081 H       1  ZINC000555499135    0.0800
     51 H51       -15.3659   -0.1946   58.3848 H       1  ZINC000555499135    0.0800
     52 H52       -16.2849    0.2975   60.6618 H       1  ZINC000555499135    0.0700
     53 H53       -16.4753   -1.4165   60.2147 H       1  ZINC000555499135    0.0600
     54 H54       -14.2685   -0.2428   61.9702 H       1  ZINC000555499135    0.0700
     55 H55       -15.6330   -1.2446   62.5242 H       1  ZINC000555499135    0.0800
     56 H56       -13.5453   -2.5855   62.2398 H       1  ZINC000555499135    0.1000
     57 H57       -14.8387   -3.1259   61.1425 H       1  ZINC000555499135    0.0500
@<TRIPOS>BOND
     1     1     2    1
     2     1    28    1
     3     1    29    1
     4     1    30    1
     5     2     3    1
     6     2    31    1
     7     2    32    1
     8     3    27    1
     9     3     4    2
    10     4     5    1
    11     4    33    1
    12     5     6    2
    13     6     7    1
    14     6    27    1
    15     7     8    1
    16     7    34    1
    17     7    35    1
    18     8     9    1
    19     8    10    1
    20     9    36    1
    21     9    37    1
    22     9    38    1
    23    10    18    1
    24    10    11    2
    25    11    12    1
    26    12    13    2
    27    13    14    1
    28    13    18    1
    29    14    15    1
    30    14    39    1
    31    14    40    1
    32    15    16    1
    33    15    17    1
    34    15    41    1
    35    16    42    1
    36    16    43    1
    37    16    44    1
    38    17    45    1
    39    17    46    1
    40    17    47    1
    41    18    19    1
    42    19    20    1
    43    19    48    1
    44    19    49    1
    45    20    21    1
    46    20    26    1
    47    20    22    1
    48    22    23    1
    49    22    50    1
    50    22    51    1
    51    23    24    1
    52    23    52    1
    53    23    53    1
    54    24    25    1
    55    24    54    1
    56    24    55    1
    57    25    26    1
    58    25    56    1
    59    25    57    1
@<TRIPOS>SUBSTRUCTURE
     1 ZINC000555499135        1 TEMP              0 ****  ****    0 ROOT


##########                                Name:    ZINC000937331732
##########                DOCK_Rotatable_Bonds:                   6
##########                         Heavy_Atoms:                  24
##########                    Molecular_Weight:              333.35
##########                DOCK_Rotatable_Bonds:                   6
##########                       Formal_Charge:          -0.0299999
##########                     HBond_Acceptors:                  10
##########                        HBond_Donors:                   1
##########                         Heavy_Atoms:                  24
##########                          Grid_Score:          -34.973755
##########                     Grid_vdw_energy:          -33.113190
##########                      Grid_es_energy:           -1.860564
##########           Internal_energy_repulsive:           26.375221

@<TRIPOS>MOLECULE
ZINC000937331732
 43 45 1 0 0
SMALL
USER_CHARGES


@<TRIPOS>ATOM
      1 C1        -13.3178   -5.2728   55.9651 C.3     1  ZINC000937331732    0.0600
      2 N2        -12.4136   -4.1383   55.7610 N.am    1  ZINC000937331732   -0.6100
      3 C3        -11.3679   -3.9524   56.5906 C.2     1  ZINC000937331732    0.5000
      4 O4        -10.6184   -3.0141   56.4207 O.2     1  ZINC000937331732   -0.5200
      5 C5        -11.1298   -4.9103   57.7293 C.3     1  ZINC000937331732    0.1500
      6 N6        -10.3111   -4.2572   58.7538 N.am    1  ZINC000937331732   -0.4400
      7 N7         -9.0410   -4.6633   59.1858 N.2     1  ZINC000937331732   -0.2800
      8 C8         -8.6429   -3.8372   60.0987 C.2     1  ZINC000937331732    0.2600
      9 N9         -9.6149   -2.8858   60.2903 N.am    1  ZINC000937331732   -0.5600
     10 C10        -9.5490   -1.7711   61.2386 C.3     1  ZINC000937331732    0.1000
     11 C11       -10.6375   -3.1497   59.4524 C.2     1  ZINC000937331732    0.6500
     12 O12       -11.6696   -2.5108   59.3503 O.2     1  ZINC000937331732   -0.5500
     13 C13       -12.6461   -3.2061   54.6550 C.3     1  ZINC000937331732    0.1300
     14 H14       -13.4985   -3.5259   54.0557 H       1  ZINC000937331732    0.1200
     15 C15       -12.8595   -1.7645   55.1878 C.3     1  ZINC000937331732   -0.1500
     16 C16       -12.4051   -0.9144   53.9750 C.3     1  ZINC000937331732    0.1000
     17 N17       -11.2644   -1.6525   53.4030 N.am    1  ZINC000937331732   -0.6000
     18 C18       -10.2776   -1.1179   52.6567 C.2     1  ZINC000937331732    0.6200
     19 O19        -9.3831   -1.8253   52.2346 O.2     1  ZINC000937331732   -0.5400
     20 C20       -10.2825    0.3245   52.3524 C.2     1  ZINC000937331732    0.1400
     21 N21        -9.2381    1.1244   52.3920 N.2     1  ZINC000937331732   -0.4400
     22 C22        -9.6193    2.3549   52.0566 C.2     1  ZINC000937331732   -0.0300
     23 C23       -10.9494    2.3336   51.7959 C.2     1  ZINC000937331732   -0.0200
     24 N24       -11.3712    1.0594   51.9750 N.pl3   1  ZINC000937331732   -0.5200
     25 C25       -11.3824   -3.0720   53.7793 C.3     1  ZINC000937331732    0.1000
     26 H26       -14.1306   -4.9750   56.6276 H       1  ZINC000937331732    0.0700
     27 H27       -13.7281   -5.5877   55.0056 H       1  ZINC000937331732    0.0800
     28 H28       -12.7676   -6.0998   56.4140 H       1  ZINC000937331732    0.0800
     29 H29       -12.0858   -5.2054   58.1618 H       1  ZINC000937331732    0.1300
     30 H30       -10.6106   -5.7939   57.3583 H       1  ZINC000937331732    0.1300
     31 H31        -7.7006   -3.8876   60.6243 H       1  ZINC000937331732    0.2300
     32 H32        -8.6022   -1.8080   61.7775 H       1  ZINC000937331732    0.1000
     33 H33        -9.6219   -0.8282   60.6965 H       1  ZINC000937331732    0.0800
     34 H34       -10.3736   -1.8475   61.9472 H       1  ZINC000937331732    0.0800
     35 H35       -13.9094   -1.5852   55.4193 H       1  ZINC000937331732    0.0900
     36 H36       -12.2308   -1.5723   56.0572 H       1  ZINC000937331732    0.0800
     37 H37       -13.2103   -0.8349   53.2446 H       1  ZINC000937331732    0.0800
     38 H38       -12.0900    0.0761   54.3030 H       1  ZINC000937331732    0.1100
     39 H39        -8.9781    3.2222   52.0016 H       1  ZINC000937331732    0.1800
     40 H40       -11.5578    3.1744   51.4976 H       1  ZINC000937331732    0.1900
     41 H41       -12.2770    0.7312   51.8623 H       1  ZINC000937331732    0.4300
     42 H42       -10.5052   -3.3787   54.3488 H       1  ZINC000937331732    0.0800
     43 H43       -11.4790   -3.6860   52.8839 H       1  ZINC000937331732    0.0800
@<TRIPOS>BOND
     1     1     2    1
     2     1    26    1
     3     1    27    1
     4     1    28    1
     5     2     3   am
     6     2    13    1
     7     3     4    2
     8     3     5    1
     9     5     6    1
    10     5    29    1
    11     5    30    1
    12     6    11   am
    13     6     7    1
    14     7     8    2
    15     8     9    1
    16     8    31    1
    17     9    10    1
    18     9    11   am
    19    10    32    1
    20    10    33    1
    21    10    34    1
    22    11    12    2
    23    13    14    1
    24    13    25    1
    25    13    15    1
    26    15    16    1
    27    15    35    1
    28    15    36    1
    29    16    17    1
    30    16    37    1
    31    16    38    1
    32    17    18   am
    33    17    25    1
    34    18    19    2
    35    18    20    1
    36    20    24    1
    37    20    21    2
    38    21    22    1
    39    22    23    2
    40    22    39    1
    41    23    24    1
    42    23    40    1
    43    24    41    1
    44    25    42    1
    45    25    43    1
@<TRIPOS>SUBSTRUCTURE
     1 ZINC000937331732        1 TEMP              0 ****  ****    0 ROOT


##########                                Name:    ZINC000502834785
##########                DOCK_Rotatable_Bonds:                   9
##########                         Heavy_Atoms:                  26
##########                    Molecular_Weight:             356.468
##########                DOCK_Rotatable_Bonds:                   9
##########                       Formal_Charge:           0.0199998
##########                     HBond_Acceptors:                   6
##########                        HBond_Donors:                   2
##########                         Heavy_Atoms:                  26
##########                          Grid_Score:          -34.967617
##########                     Grid_vdw_energy:          -34.569759
##########                      Grid_es_energy:           -0.397859
##########           Internal_energy_repulsive:           33.905369

@<TRIPOS>MOLECULE
ZINC000502834785
 54 56 1 0 0
SMALL
USER_CHARGES


@<TRIPOS>ATOM
      1 C1        -10.6122    2.9962   64.9293 C.3     1  ZINC000502834785   -0.1800
      2 C2        -11.1184    1.6443   64.4223 C.3     1  ZINC000502834785    0.0800
      3 C3        -12.6483    1.6349   64.4358 C.3     1  ZINC000502834785   -0.1500
      4 O4        -10.6524    1.4311   63.0883 O.3     1  ZINC000502834785   -0.3800
      5 C5         -9.4201    0.7118   63.0110 C.3     1  ZINC000502834785    0.1000
      6 C6         -9.4733   -0.2530   61.8546 C.ar    1  ZINC000502834785   -0.0800
      7 C7        -10.0444    0.1345   60.6568 C.ar    1  ZINC000502834785   -0.1000
      8 C8        -10.0931   -0.7505   59.5961 C.ar    1  ZINC000502834785   -0.1000
      9 C9         -9.5705   -2.0228   59.7329 C.ar    1  ZINC000502834785   -0.1000
     10 C10        -9.6241   -2.9879   58.5765 C.3     1  ZINC000502834785    0.1600
     11 N11       -11.0217   -3.2545   58.2275 N.am    1  ZINC000502834785   -0.7300
     12 C12       -11.3688   -4.4442   57.6978 C.2     1  ZINC000502834785    0.5100
     13 O13       -10.5244   -5.2945   57.5114 O.2     1  ZINC000502834785   -0.5200
     14 C14       -12.8062   -4.7178   57.3371 C.3     1  ZINC000502834785    0.0300
     15 N15       -13.6080   -3.5090   57.5698 N.3     1  ZINC000502834785   -0.5000
     16 C16       -15.0178   -3.8543   57.8510 C.3     1  ZINC000502834785    0.0500
     17 C17       -15.8395   -2.6939   57.2362 C.3     1  ZINC000502834785   -0.1300
     18 C18       -15.0270   -2.3805   55.9523 C.3     1  ZINC000502834785   -0.1300
     19 C19       -13.5683   -2.6149   56.3981 C.3     1  ZINC000502834785    0.1500
     20 H20       -13.1069   -1.6659   56.6712 H       1  ZINC000502834785    0.1100
     21 C21       -12.7888   -3.2612   55.2820 C.2     1  ZINC000502834785    0.0600
     22 N22       -13.2876   -4.0064   54.3292 N.2     1  ZINC000502834785   -0.2900
     23 N23       -12.2375   -4.4113   53.4951 N.pl3   1  ZINC000502834785   -0.4800
     24 C24       -11.0944   -3.8836   53.9806 C.2     1  ZINC000502834785    0.0600
     25 C25       -11.4079   -3.1633   55.0824 C.2     1  ZINC000502834785   -0.2600
     26 C26        -8.9982   -2.4099   60.9301 C.ar    1  ZINC000502834785   -0.1000
     27 C27        -8.9460   -1.5237   61.9897 C.ar    1  ZINC000502834785   -0.1000
     28 H28        -9.5223    3.0029   64.9197 H       1  ZINC000502834785    0.0600
     29 H29       -10.9862    3.7900   64.2827 H       1  ZINC000502834785    0.0600
     30 H30       -10.9676    3.1588   65.9469 H       1  ZINC000502834785    0.0700
     31 H31       -10.7445    0.8505   65.0690 H       1  ZINC000502834785    0.0600
     32 H32       -13.0222    2.4286   63.7891 H       1  ZINC000502834785    0.0600
     33 H33       -13.0088    0.6717   64.0746 H       1  ZINC000502834785    0.0600
     34 H34       -13.0037    1.7974   65.4533 H       1  ZINC000502834785    0.0700
     35 H35        -8.5989    1.4129   62.8618 H       1  ZINC000502834785    0.0600
     36 H36        -9.2628    0.1599   63.9377 H       1  ZINC000502834785    0.0600
     37 H37       -10.4527    1.1287   60.5499 H       1  ZINC000502834785    0.1300
     38 H38       -10.5400   -0.4480   58.6605 H       1  ZINC000502834785    0.1300
     39 H39        -9.1115   -2.5546   57.7177 H       1  ZINC000502834785    0.0800
     40 H40        -9.1358   -3.9206   58.8587 H       1  ZINC000502834785    0.0800
     41 H41       -11.6973   -2.5748   58.3777 H       1  ZINC000502834785    0.4000
     42 H42       -12.8698   -4.9991   56.2860 H       1  ZINC000502834785    0.1000
     43 H43       -13.1873   -5.5310   57.9547 H       1  ZINC000502834785    0.0800
     44 H44       -15.2794   -4.7988   57.3740 H       1  ZINC000502834785    0.0400
     45 H45       -15.1874   -3.9113   58.9262 H       1  ZINC000502834785    0.1000
     46 H46       -16.8501   -3.0192   56.9891 H       1  ZINC000502834785    0.0800
     47 H47       -15.8605   -1.8333   57.9048 H       1  ZINC000502834785    0.0800
     48 H48       -15.2987   -3.0638   55.1478 H       1  ZINC000502834785    0.0800
     49 H49       -15.1746   -1.3448   55.6461 H       1  ZINC000502834785    0.0800
     50 H50       -12.3180   -4.9718   52.7075 H       1  ZINC000502834785    0.4400
     51 H51       -10.1068   -4.0100   53.5622 H       1  ZINC000502834785    0.1800
     52 H52       -10.7136   -2.6148   55.7017 H       1  ZINC000502834785    0.1500
     53 H53        -8.5895   -3.4039   61.0370 H       1  ZINC000502834785    0.1300
     54 H54        -8.4989   -1.8261   62.9251 H       1  ZINC000502834785    0.1200
@<TRIPOS>BOND
     1     1     2    1
     2     1    28    1
     3     1    29    1
     4     1    30    1
     5     2     3    1
     6     2     4    1
     7     2    31    1
     8     3    32    1
     9     3    33    1
    10     3    34    1
    11     4     5    1
    12     5     6    1
    13     5    35    1
    14     5    36    1
    15     6    27   ar
    16     6     7   ar
    17     7     8   ar
    18     7    37    1
    19     8     9   ar
    20     8    38    1
    21     9    10    1
    22     9    26   ar
    23    10    11    1
    24    10    39    1
    25    10    40    1
    26    11    12   am
    27    11    41    1
    28    12    13    2
    29    12    14    1
    30    14    15    1
    31    14    42    1
    32    14    43    1
    33    15    19    1
    34    15    16    1
    35    16    17    1
    36    16    44    1
    37    16    45    1
    38    17    18    1
    39    17    46    1
    40    17    47    1
    41    18    19    1
    42    18    48    1
    43    18    49    1
    44    19    20    1
    45    19    21    1
    46    21    25    1
    47    21    22    2
    48    22    23    1
    49    23    24    1
    50    23    50    1
    51    24    25    2
    52    24    51    1
    53    25    52    1
    54    26    27   ar
    55    26    53    1
    56    27    54    1
@<TRIPOS>SUBSTRUCTURE
     1 ZINC000502834785        1 TEMP              0 ****  ****    0 ROOT


##########                                Name:    ZINC000847397179
##########                DOCK_Rotatable_Bonds:                   9
##########                         Heavy_Atoms:                  25
##########                    Molecular_Weight:             350.461
##########                DOCK_Rotatable_Bonds:                   9
##########                       Formal_Charge:          0.00999979
##########                     HBond_Acceptors:                   7
##########                        HBond_Donors:                   2
##########                         Heavy_Atoms:                  25
##########                          Grid_Score:          -34.938725
##########                     Grid_vdw_energy:          -34.136780
##########                      Grid_es_energy:           -0.801946
##########           Internal_energy_repulsive:           83.743607

@<TRIPOS>MOLECULE
ZINC000847397179
 55 56 1 0 0
SMALL
USER_CHARGES


@<TRIPOS>ATOM
      1 C1         -8.6804   -3.0096   60.2242 C.3     1  ZINC000847397179   -0.1500
      2 C2         -9.2319   -1.6285   59.8645 C.3     1  ZINC000847397179   -0.1000
      3 H3         -8.4603   -0.8759   60.0258 H       1  ZINC000847397179    0.0900
      4 C4        -10.4413   -1.3164   60.7481 C.3     1  ZINC000847397179   -0.0200
      5 C5         -9.9826   -0.6038   61.9942 C.2     1  ZINC000847397179    0.0100
      6 C6        -10.6033    0.4345   62.5860 C.2     1  ZINC000847397179   -0.0500
      7 N7         -9.8547    0.7714   63.6813 N.pl3   1  ZINC000847397179   -0.5700
      8 C8         -8.8019   -0.0733   63.7207 C.2     1  ZINC000847397179    0.1800
      9 N9         -8.8876   -0.8961   62.7115 N.2     1  ZINC000847397179   -0.4900
     10 C10        -9.6509   -1.6164   58.4170 C.2     1  ZINC000847397179    0.5200
     11 O11        -8.9927   -1.0077   57.6002 O.2     1  ZINC000847397179   -0.5300
     12 N12       -10.7571   -2.2821   58.0300 N.am    1  ZINC000847397179   -0.7400
     13 C13       -11.1653   -2.2689   56.6231 C.3     1  ZINC000847397179    0.1200
     14 C14       -11.8828   -3.5780   56.2880 C.3     1  ZINC000847397179    0.1500
     15 H15       -11.1878   -4.4116   56.3881 H       1  ZINC000847397179    0.0800
     16 C16       -13.0634   -3.7759   57.2440 C.3     1  ZINC000847397179   -0.1300
     17 C17       -13.8586   -5.0118   56.8173 C.3     1  ZINC000847397179   -0.1200
     18 C18       -14.4104   -4.8030   55.4051 C.3     1  ZINC000847397179   -0.1400
     19 C19       -13.2451   -4.6168   54.4283 C.3     1  ZINC000847397179    0.1100
     20 N20       -12.3905   -3.5227   54.9102 N.am    1  ZINC000847397179   -0.5900
     21 C21       -12.0826   -2.4864   54.1056 C.2     1  ZINC000847397179    0.6500
     22 O22       -11.3750   -1.5879   54.5160 O.2     1  ZINC000847397179   -0.5500
     23 O23       -12.5591   -2.4465   52.8470 O.3     1  ZINC000847397179   -0.3600
     24 C24       -13.5287   -1.4097   52.5417 C.3     1  ZINC000847397179    0.1400
     25 C25       -12.7958   -0.1137   52.1897 C.3     1  ZINC000847397179   -0.1800
     26 C26       -14.3877   -1.8485   51.3540 C.3     1  ZINC000847397179   -0.1400
     27 C27       -14.4244   -1.1745   53.7596 C.3     1  ZINC000847397179   -0.1800
     28 H28        -9.4520   -3.7623   60.0630 H       1  ZINC000847397179    0.0500
     29 H29        -7.8187   -3.2319   59.5947 H       1  ZINC000847397179    0.0500
     30 H30        -8.3774   -3.0184   61.2713 H       1  ZINC000847397179    0.1000
     31 H31       -11.1368   -0.6801   60.2007 H       1  ZINC000847397179    0.0800
     32 H32       -10.9395   -2.2460   61.0237 H       1  ZINC000847397179    0.0800
     33 H33       -11.5161    0.9102   62.2590 H       1  ZINC000847397179    0.1800
     34 H34       -10.0450    1.4840   64.3114 H       1  ZINC000847397179    0.4200
     35 H35        -8.0205   -0.0709   64.4663 H       1  ZINC000847397179    0.2100
     36 H36       -11.2828   -2.7699   58.6830 H       1  ZINC000847397179    0.3900
     37 H37       -11.8390   -1.4301   56.4482 H       1  ZINC000847397179    0.0800
     38 H38       -10.2840   -2.1652   55.9900 H       1  ZINC000847397179    0.1000
     39 H39       -12.6903   -3.9157   58.2586 H       1  ZINC000847397179    0.0800
     40 H40       -13.7093   -2.8985   57.2110 H       1  ZINC000847397179    0.0700
     41 H41       -13.2058   -5.8847   56.8266 H       1  ZINC000847397179    0.0700
     42 H42       -14.6849   -5.1691   57.5105 H       1  ZINC000847397179    0.0700
     43 H43       -14.9962   -5.6739   55.1109 H       1  ZINC000847397179    0.0800
     44 H44       -15.0436   -3.9159   55.3895 H       1  ZINC000847397179    0.0700
     45 H45       -12.6625   -5.5364   54.3750 H       1  ZINC000847397179    0.0700
     46 H46       -13.6328   -4.3695   53.4400 H       1  ZINC000847397179    0.0900
     47 H47       -12.1576   -0.2811   51.3221 H       1  ZINC000847397179    0.0600
     48 H48       -13.5236    0.6647   51.9606 H       1  ZINC000847397179    0.0700
     49 H49       -12.1838    0.1989   53.0359 H       1  ZINC000847397179    0.0900
     50 H50       -14.9099   -2.7718   51.6048 H       1  ZINC000847397179    0.0700
     51 H51       -15.1155   -1.0701   51.1249 H       1  ZINC000847397179    0.0800
     52 H52       -13.7496   -2.0160   50.4864 H       1  ZINC000847397179    0.0700
     53 H53       -13.8124   -0.8618   54.6058 H       1  ZINC000847397179    0.0900
     54 H54       -15.1523   -0.3962   53.5305 H       1  ZINC000847397179    0.0700
     55 H55       -14.9466   -2.0979   54.0104 H       1  ZINC000847397179    0.0600
@<TRIPOS>BOND
     1     1     2    1
     2     1    28    1
     3     1    29    1
     4     1    30    1
     5     2     3    1
     6     2     4    1
     7     2    10    1
     8     4     5    1
     9     4    31    1
    10     4    32    1
    11     5     9    1
    12     5     6    2
    13     6     7    1
    14     6    33    1
    15     7     8    1
    16     7    34    1
    17     8     9    2
    18     8    35    1
    19    10    11    2
    20    10    12   am
    21    12    13    1
    22    12    36    1
    23    13    14    1
    24    13    37    1
    25    13    38    1
    26    14    15    1
    27    14    20    1
    28    14    16    1
    29    16    17    1
    30    16    39    1
    31    16    40    1
    32    17    18    1
    33    17    41    1
    34    17    42    1
    35    18    19    1
    36    18    43    1
    37    18    44    1
    38    19    20    1
    39    19    45    1
    40    19    46    1
    41    20    21   am
    42    21    22    2
    43    21    23    1
    44    23    24    1
    45    24    25    1
    46    24    26    1
    47    24    27    1
    48    25    47    1
    49    25    48    1
    50    25    49    1
    51    26    50    1
    52    26    51    1
    53    26    52    1
    54    27    53    1
    55    27    54    1
    56    27    55    1
@<TRIPOS>SUBSTRUCTURE
     1 ZINC000847397179        1 TEMP              0 ****  ****    0 ROOT


##########                                Name:    ZINC000991934963
##########                DOCK_Rotatable_Bonds:                   8
##########                         Heavy_Atoms:                  27
##########                    Molecular_Weight:             370.495
##########                DOCK_Rotatable_Bonds:                   8
##########                       Formal_Charge:          -0.0499997
##########                     HBond_Acceptors:                   6
##########                        HBond_Donors:                   1
##########                         Heavy_Atoms:                  27
##########                          Grid_Score:          -34.917564
##########                     Grid_vdw_energy:          -34.914078
##########                      Grid_es_energy:           -0.003485
##########           Internal_energy_repulsive:           21.875868

@<TRIPOS>MOLECULE
ZINC000991934963
 57 61 1 0 0
SMALL
USER_CHARGES


@<TRIPOS>ATOM
      1 C1         -6.2700    0.1789   50.6747 C.3     1  ZINC000991934963    0.0400
      2 O2         -6.9939   -0.7287   51.5079 O.3     1  ZINC000991934963   -0.2900
      3 C3         -8.2657   -0.3890   51.8275 C.ar    1  ZINC000991934963    0.5000
      4 N4         -8.5769    0.8894   51.9659 N.ar    1  ZINC000991934963   -0.5700
      5 C5         -9.8094    1.2559   52.2776 C.ar    1  ZINC000991934963    0.1900
      6 C6        -10.7784    0.2821   52.4589 C.ar    1  ZINC000991934963   -0.2700
      7 C7        -10.4173   -1.0474   52.3060 C.ar    1  ZINC000991934963    0.2200
      8 C8        -11.4368   -2.1413   52.4933 C.3     1  ZINC000991934963    0.1000
      9 N9        -11.9241   -2.1244   53.8791 N.3     1  ZINC000991934963   -0.4900
     10 C10       -11.3122   -3.2341   54.6765 C.3     1  ZINC000991934963    0.0400
     11 C11       -12.4942   -4.0048   55.3440 C.3     1  ZINC000991934963   -0.1400
     12 C12       -13.5774   -2.9283   55.3672 C.3     1  ZINC000991934963    0.1700
     13 N13       -13.3641   -1.9462   56.4331 N.am    1  ZINC000991934963   -0.7000
     14 C14       -13.5140   -2.3079   57.7227 C.2     1  ZINC000991934963    0.5200
     15 O15       -13.8270   -3.4462   58.0008 O.2     1  ZINC000991934963   -0.5300
     16 C16       -13.2929   -1.2980   58.8192 C.3     1  ZINC000991934963   -0.1100
     17 C17       -11.7926   -1.1478   59.0792 C.3     1  ZINC000991934963   -0.1300
     18 H18       -11.5217   -0.7743   60.0669 H       1  ZINC000991934963    0.1200
     19 C19       -10.9092   -0.7337   57.9006 C.3     1  ZINC000991934963   -0.1700
     20 C20       -10.8571   -2.1693   58.4293 C.3     1  ZINC000991934963   -0.1200
     21 H21       -11.3104   -2.9481   57.8161 H       1  ZINC000991934963    0.1000
     22 C22        -9.6126   -2.5882   59.2145 C.3     1  ZINC000991934963   -0.1200
     23 C23        -9.8092   -3.0336   60.6649 C.3     1  ZINC000991934963   -0.1800
     24 C24        -9.4762   -4.0661   59.5861 C.3     1  ZINC000991934963   -0.1800
     25 C25       -15.0415   -3.3268   55.2158 C.3     1  ZINC000991934963   -0.1200
     26 C26       -15.6541   -2.0856   54.4951 C.3     1  ZINC000991934963   -0.1200
     27 C27       -14.4758   -1.4138   53.7266 C.3     1  ZINC000991934963   -0.1000
     28 C28       -13.3292   -2.3457   53.9284 C.3     1  ZINC000991934963    0.0500
     29 H29       -13.5155   -3.1972   53.2738 H       1  ZINC000991934963    0.0400
     30 N30        -9.1678   -1.3438   51.9883 N.ar    1  ZINC000991934963   -0.5000
     31 H31        -6.1990    1.1480   51.1687 H       1  ZINC000991934963    0.0600
     32 H32        -5.2683   -0.2120   50.4960 H       1  ZINC000991934963    0.1100
     33 H33        -6.7904    0.2931   49.7238 H       1  ZINC000991934963    0.0600
     34 H34       -10.0573    2.3012   52.3896 H       1  ZINC000991934963    0.1700
     35 H35       -11.7923    0.5528   52.7140 H       1  ZINC000991934963    0.1500
     36 H36       -12.2725   -1.9796   51.8123 H       1  ZINC000991934963    0.1000
     37 H37       -10.9772   -3.1066   52.2816 H       1  ZINC000991934963    0.0600
     38 H38       -10.7537   -3.9018   54.0205 H       1  ZINC000991934963    0.0600
     39 H39       -10.6532   -2.8247   55.4423 H       1  ZINC000991934963    0.0800
     40 H40       -12.8005   -4.8556   54.7354 H       1  ZINC000991934963    0.0800
     41 H41       -12.2347   -4.3212   56.3543 H       1  ZINC000991934963    0.0900
     42 H42       -13.1149   -1.0354   56.2107 H       1  ZINC000991934963    0.4000
     43 H43       -13.7071   -0.3364   58.5163 H       1  ZINC000991934963    0.1000
     44 H44       -13.7873   -1.6361   59.7297 H       1  ZINC000991934963    0.0900
     45 H45       -11.3969   -0.5682   56.9400 H       1  ZINC000991934963    0.0900
     46 H46       -10.0571   -0.0880   58.1129 H       1  ZINC000991934963    0.1000
     47 H47        -8.6996   -2.0432   58.9743 H       1  ZINC000991934963    0.1000
     48 H48        -9.0255   -2.7815   61.3794 H       1  ZINC000991934963    0.0900
     49 H49       -10.8252   -3.0281   61.0598 H       1  ZINC000991934963    0.0900
     50 H50       -10.2729   -4.7399   59.2713 H       1  ZINC000991934963    0.0900
     51 H51        -8.4733   -4.4934   59.5909 H       1  ZINC000991934963    0.0900
     52 H52       -15.1381   -4.2199   54.5985 H       1  ZINC000991934963    0.0800
     53 H53       -15.5052   -3.4765   56.1908 H       1  ZINC000991934963    0.0800
     54 H54       -16.4277   -2.4013   53.7951 H       1  ZINC000991934963    0.0700
     55 H55       -16.0689   -1.3927   55.2272 H       1  ZINC000991934963    0.0700
     56 H56       -14.7132   -1.3250   52.6665 H       1  ZINC000991934963    0.0700
     57 H57       -14.2517   -0.4355   54.1517 H       1  ZINC000991934963    0.0700
@<TRIPOS>BOND
     1     1     2    1
     2     1    31    1
     3     1    32    1
     4     1    33    1
     5     2     3    1
     6     3    30   ar
     7     3     4   ar
     8     4     5   ar
     9     5     6   ar
    10     5    34    1
    11     6     7   ar
    12     6    35    1
    13     7     8    1
    14     7    30   ar
    15     8     9    1
    16     8    36    1
    17     8    37    1
    18     9    28    1
    19     9    10    1
    20    10    11    1
    21    10    38    1
    22    10    39    1
    23    11    12    1
    24    11    40    1
    25    11    41    1
    26    12    28    1
    27    12    13    1
    28    12    25    1
    29    13    14   am
    30    13    42    1
    31    14    15    2
    32    14    16    1
    33    16    17    1
    34    16    43    1
    35    16    44    1
    36    17    18    1
    37    17    20    1
    38    17    19    1
    39    19    20    1
    40    19    45    1
    41    19    46    1
    42    20    21    1
    43    20    22    1
    44    22    24    1
    45    22    23    1
    46    22    47    1
    47    23    24    1
    48    23    48    1
    49    23    49    1
    50    24    50    1
    51    24    51    1
    52    25    26    1
    53    25    52    1
    54    25    53    1
    55    26    27    1
    56    26    54    1
    57    26    55    1
    58    27    28    1
    59    27    56    1
    60    27    57    1
    61    28    29    1
@<TRIPOS>SUBSTRUCTURE
     1 ZINC000991934963        1 TEMP              0 ****  ****    0 ROOT


##########                                Name:    ZINC001000186632
##########                DOCK_Rotatable_Bonds:                   7
##########                         Heavy_Atoms:                  23
##########                    Molecular_Weight:             342.379
##########                DOCK_Rotatable_Bonds:                   7
##########                       Formal_Charge:          -0.0100001
##########                     HBond_Acceptors:                  11
##########                        HBond_Donors:                   2
##########                         Heavy_Atoms:                  23
##########                          Grid_Score:          -34.872169
##########                     Grid_vdw_energy:          -34.344540
##########                      Grid_es_energy:           -0.527631
##########           Internal_energy_repulsive:            4.599683

@<TRIPOS>MOLECULE
ZINC001000186632
 41 43 1 0 0
SMALL
USER_CHARGES


@<TRIPOS>ATOM
      1 O1        -11.1068    0.3871   52.3330 O.2     1  ZINC001000186632   -0.5200
      2 C2        -10.1700   -0.0996   52.9300 C.2     1  ZINC001000186632    0.5300
      3 C3         -8.8679    0.6525   53.0306 C.3     1  ZINC001000186632   -0.0500
      4 C4         -7.9034    0.1271   51.9986 C.2     1  ZINC001000186632    0.2400
      5 N5         -7.8815   -1.0934   51.5313 N.2     1  ZINC001000186632   -0.3000
      6 N6         -6.8337   -1.1517   50.5978 N.pl3   1  ZINC001000186632   -0.4800
      7 C7         -6.2838    0.0746   50.5690 C.2     1  ZINC001000186632    0.2700
      8 N8         -6.9385    0.8330   51.4104 N.2     1  ZINC001000186632   -0.5400
      9 N9        -10.2951   -1.3105   53.5084 N.am    1  ZINC001000186632   -0.7100
     10 C10       -11.5609   -2.0415   53.4107 C.3     1  ZINC001000186632    0.1100
     11 C11       -11.4714   -3.5024   53.8881 C.3     1  ZINC001000186632    0.1000
     12 N12       -11.8463   -2.9852   55.2185 N.am    1  ZINC001000186632   -0.6500
     13 C13       -11.6631   -3.4118   56.4838 C.2     1  ZINC001000186632    0.5100
     14 O14       -11.0676   -4.4473   56.6944 O.2     1  ZINC001000186632   -0.5100
     15 C15       -12.1982   -2.6024   57.6368 C.3     1  ZINC001000186632    0.1500
     16 N16       -11.0886   -1.9317   58.3191 N.am    1  ZINC001000186632   -0.9800
     17 C17       -10.3583   -0.7492   57.8385 C.3     1  ZINC001000186632    0.0800
     18 C18        -9.8253    0.0656   59.0325 C.3     1  ZINC001000186632   -0.1300
     19 C19        -9.2128   -1.0026   59.9839 C.3     1  ZINC001000186632   -0.6000
     20 S20       -10.4252   -2.3650   59.7892 S.o2    1  ZINC001000186632    2.5700
     21 O21       -11.4846   -2.2499   60.7293 O.2     1  ZINC001000186632   -0.9400
     22 O22        -9.7733   -3.6036   59.5442 O.2     1  ZINC001000186632   -0.9600
     23 C23       -12.5025   -1.8132   54.6070 C.3     1  ZINC001000186632    0.0900
     24 H24        -9.0463    1.7133   52.8542 H       1  ZINC001000186632    0.1300
     25 H25        -8.4451    0.5157   54.0259 H       1  ZINC001000186632    0.1200
     26 H26        -6.5610   -1.9236   50.0774 H       1  ZINC001000186632    0.4400
     27 H27        -5.4492    0.3812   49.9558 H       1  ZINC001000186632    0.2200
     28 H28        -9.5471   -1.6979   53.9893 H       1  ZINC001000186632    0.4100
     29 H29       -12.0460   -1.9237   52.4417 H       1  ZINC001000186632    0.1200
     30 H30       -12.2215   -4.1566   53.4437 H       1  ZINC001000186632    0.1000
     31 H31       -10.4645   -3.9175   53.8459 H       1  ZINC001000186632    0.0900
     32 H32       -12.8989   -1.8560   57.2626 H       1  ZINC001000186632    0.1100
     33 H33       -12.7099   -3.2622   58.3374 H       1  ZINC001000186632    0.1100
     34 H34        -9.5217   -1.0690   57.2173 H       1  ZINC001000186632    0.0800
     35 H35       -11.0289   -0.1263   57.2466 H       1  ZINC001000186632    0.0900
     36 H36        -9.0589    0.7672   58.7034 H       1  ZINC001000186632    0.1100
     37 H37       -10.6401    0.5942   59.5273 H       1  ZINC001000186632    0.1000
     38 H38        -8.2200   -1.3041   59.6499 H       1  ZINC001000186632    0.1400
     39 H39        -9.1880   -0.6450   61.0133 H       1  ZINC001000186632    0.1400
     40 H40       -12.3187   -0.8797   55.1388 H       1  ZINC001000186632    0.0900
     41 H41       -13.5555   -1.9711   54.3738 H       1  ZINC001000186632    0.1100
@<TRIPOS>BOND
     1     1     2    2
     2     2     3    1
     3     2     9   am
     4     3     4    1
     5     3    24    1
     6     3    25    1
     7     4     8    1
     8     4     5    2
     9     5     6    1
    10     6     7    1
    11     6    26    1
    12     7     8    2
    13     7    27    1
    14     9    10    1
    15     9    28    1
    16    10    23    1
    17    10    11    1
    18    10    29    1
    19    11    12    1
    20    11    30    1
    21    11    31    1
    22    12    13   am
    23    12    23    1
    24    13    14    2
    25    13    15    1
    26    15    16    1
    27    15    32    1
    28    15    33    1
    29    16    20   am
    30    16    17    1
    31    17    18    1
    32    17    34    1
    33    17    35    1
    34    18    19    1
    35    18    36    1
    36    18    37    1
    37    19    20    1
    38    19    38    1
    39    19    39    1
    40    20    21    2
    41    20    22    2
    42    23    40    1
    43    23    41    1
@<TRIPOS>SUBSTRUCTURE
     1 ZINC001000186632        1 TEMP              0 ****  ****    0 ROOT


##########                                Name:    ZINC000970996691
##########                DOCK_Rotatable_Bonds:                   7
##########                         Heavy_Atoms:                  24
##########                    Molecular_Weight:             334.462
##########                DOCK_Rotatable_Bonds:                   7
##########                       Formal_Charge:          -0.0199999
##########                     HBond_Acceptors:                   6
##########                        HBond_Donors:                   0
##########                         Heavy_Atoms:                  24
##########                          Grid_Score:          -34.833691
##########                     Grid_vdw_energy:          -33.942940
##########                      Grid_es_energy:           -0.890752
##########           Internal_energy_repulsive:           13.355665

@<TRIPOS>MOLECULE
ZINC000970996691
 54 56 1 0 0
SMALL
USER_CHARGES


@<TRIPOS>ATOM
      1 C1        -14.6571   -3.8352   54.9244 C.3     1  ZINC000970996691   -0.1500
      2 C2        -14.1867   -5.2271   55.3511 C.3     1  ZINC000970996691   -0.1200
      3 C3        -13.5919   -5.1550   56.7590 C.3     1  ZINC000970996691   -0.0300
      4 C4        -12.3731   -4.2690   56.7446 C.2     1  ZINC000970996691    0.1800
      5 N5        -11.9237   -3.5426   57.7395 N.2     1  ZINC000970996691   -0.4700
      6 C6        -10.8245   -2.9260   57.2701 C.2     1  ZINC000970996691    0.1800
      7 C7         -9.9406   -1.9743   58.0344 C.3     1  ZINC000970996691    0.1500
      8 N8         -9.9121   -2.3629   59.4507 N.3     1  ZINC000970996691   -0.5200
      9 C9         -9.1724   -3.6183   59.6375 C.3     1  ZINC000970996691    0.0200
     10 C10        -9.3461   -1.2902   60.2797 C.3     1  ZINC000970996691    0.0700
     11 H11        -8.3285   -1.0545   59.9685 H       1  ZINC000970996691    0.0600
     12 C12       -10.2455   -0.0264   60.2438 C.3     1  ZINC000970996691   -0.1300
     13 C13        -9.9319    0.6593   61.5903 C.3     1  ZINC000970996691    0.1000
     14 N14        -9.4017   -0.3730   62.4928 N.am    1  ZINC000970996691   -0.6200
     15 C15        -8.9903   -0.1722   63.7605 C.2     1  ZINC000970996691    0.5300
     16 O16        -8.5691   -1.1017   64.4158 O.2     1  ZINC000970996691   -0.5300
     17 C17        -9.0539    1.2074   64.3636 C.3     1  ZINC000970996691   -0.1000
     18 C18       -10.4615    1.4624   64.9062 C.3     1  ZINC000970996691   -0.1100
     19 C19       -10.5260    2.8631   65.5185 C.3     1  ZINC000970996691   -0.1200
     20 C20        -9.5128    2.9677   66.6600 C.3     1  ZINC000970996691   -0.1200
     21 C21        -8.1051    2.7127   66.1175 C.3     1  ZINC000970996691   -0.1200
     22 C22        -8.0406    1.3121   65.5052 C.3     1  ZINC000970996691   -0.1000
     23 C23        -9.3947   -1.6651   61.7820 C.3     1  ZINC000970996691    0.1200
     24 N24       -10.6643   -3.3019   56.0366 N.2     1  ZINC000970996691   -0.3800
     25 O25       -11.5400   -4.0780   55.7171 O.3     1  ZINC000970996691    0.0800
     26 H26       -15.4154   -3.4784   55.6213 H       1  ZINC000970996691    0.0600
     27 H27       -13.8102   -3.1490   54.9263 H       1  ZINC000970996691    0.0600
     28 H28       -15.0809   -3.8865   53.9214 H       1  ZINC000970996691    0.0600
     29 H29       -15.0337   -5.9133   55.3492 H       1  ZINC000970996691    0.0700
     30 H30       -13.4284   -5.5840   54.6542 H       1  ZINC000970996691    0.0700
     31 H31       -14.3321   -4.7437   57.4454 H       1  ZINC000970996691    0.1100
     32 H32       -13.3098   -6.1558   57.0859 H       1  ZINC000970996691    0.1000
     33 H33        -8.9302   -2.0104   57.6272 H       1  ZINC000970996691    0.0700
     34 H34       -10.3331   -0.9615   57.9434 H       1  ZINC000970996691    0.1100
     35 H35        -8.1474   -3.4913   59.2892 H       1  ZINC000970996691    0.0300
     36 H36        -9.1667   -3.8829   60.6948 H       1  ZINC000970996691    0.0800
     37 H37        -9.6543   -4.4123   59.0668 H       1  ZINC000970996691    0.0700
     38 H38        -9.9709    0.6188   59.4093 H       1  ZINC000970996691    0.0800
     39 H39       -11.2983   -0.3037   60.1881 H       1  ZINC000970996691    0.0900
     40 H40        -9.1871    1.4414   61.4433 H       1  ZINC000970996691    0.0700
     41 H41       -10.8429    1.0862   62.0099 H       1  ZINC000970996691    0.0700
     42 H42        -8.8189    1.9489   63.6001 H       1  ZINC000970996691    0.0900
     43 H43       -11.1834    1.3879   64.0929 H       1  ZINC000970996691    0.0700
     44 H44       -10.6965    0.7209   65.6697 H       1  ZINC000970996691    0.0700
     45 H45       -10.2910    3.6046   64.7550 H       1  ZINC000970996691    0.0600
     46 H46       -11.5289    3.0448   65.9050 H       1  ZINC000970996691    0.0700
     47 H47        -9.5587    3.9656   67.0963 H       1  ZINC000970996691    0.0600
     48 H48        -9.7477    2.2262   67.4236 H       1  ZINC000970996691    0.0600
     49 H49        -7.8701    3.4542   65.3540 H       1  ZINC000970996691    0.0600
     50 H50        -7.3832    2.7873   66.9308 H       1  ZINC000970996691    0.0700
     51 H51        -8.2755    0.5705   66.2687 H       1  ZINC000970996691    0.0800
     52 H52        -7.0377    1.1303   65.1186 H       1  ZINC000970996691    0.0600
     53 H53       -10.3034   -2.2248   62.0034 H       1  ZINC000970996691    0.0800
     54 H54        -8.5140   -2.2452   62.0579 H       1  ZINC000970996691    0.0800
@<TRIPOS>BOND
     1     1     2    1
     2     1    26    1
     3     1    27    1
     4     1    28    1
     5     2     3    1
     6     2    29    1
     7     2    30    1
     8     3     4    1
     9     3    31    1
    10     3    32    1
    11     4    25    1
    12     4     5    2
    13     5     6    1
    14     6     7    1
    15     6    24    2
    16     7     8    1
    17     7    33    1
    18     7    34    1
    19     8     9    1
    20     8    10    1
    21     9    35    1
    22     9    36    1
    23     9    37    1
    24    10    11    1
    25    10    23    1
    26    10    12    1
    27    12    13    1
    28    12    38    1
    29    12    39    1
    30    13    14    1
    31    13    40    1
    32    13    41    1
    33    14    15   am
    34    14    23    1
    35    15    16    2
    36    15    17    1
    37    17    22    1
    38    17    18    1
    39    17    42    1
    40    18    19    1
    41    18    43    1
    42    18    44    1
    43    19    20    1
    44    19    45    1
    45    19    46    1
    46    20    21    1
    47    20    47    1
    48    20    48    1
    49    21    22    1
    50    21    49    1
    51    21    50    1
    52    22    51    1
    53    22    52    1
    54    23    53    1
    55    23    54    1
    56    24    25    1
@<TRIPOS>SUBSTRUCTURE
     1 ZINC000970996691        1 TEMP              0 ****  ****    0 ROOT


##########                                Name:    ZINC000185180600
##########                DOCK_Rotatable_Bonds:                   7
##########                         Heavy_Atoms:                  26
##########                    Molecular_Weight:             395.953
##########                DOCK_Rotatable_Bonds:                   7
##########                       Formal_Charge:          0.00999977
##########                     HBond_Acceptors:                   7
##########                        HBond_Donors:                   0
##########                         Heavy_Atoms:                  26
##########                          Grid_Score:          -34.816307
##########                     Grid_vdw_energy:          -33.437164
##########                      Grid_es_energy:           -1.379143
##########           Internal_energy_repulsive:           25.041599

@<TRIPOS>MOLECULE
ZINC000185180600
 52 53 1 0 0
SMALL
USER_CHARGES


@<TRIPOS>ATOM
      1 C1        -10.3191   -1.8200   52.2935 C.3     1  ZINC000185180600   -0.1500
      2 C2        -11.3291   -0.8988   52.9807 C.3     1  ZINC000185180600   -0.0900
      3 C3        -10.7228    0.4974   53.1355 C.3     1  ZINC000185180600   -0.1500
      4 C4        -12.5995   -0.8120   52.1326 C.3     1  ZINC000185180600   -0.1300
      5 C5        -13.3380   -2.1510   52.1818 C.3     1  ZINC000185180600    0.1300
      6 H6        -12.8030   -2.8835   51.5775 H       1  ZINC000185180600    0.1100
      7 C7        -14.7545   -1.9727   51.6316 C.3     1  ZINC000185180600   -0.1600
      8 N8        -13.4080   -2.6193   53.5682 N.am    1  ZINC000185180600   -0.6000
      9 C9        -14.0716   -1.8001   54.5855 C.3     1  ZINC000185180600    0.0700
     10 C10       -12.8621   -3.8038   53.9078 C.2     1  ZINC000185180600    0.5400
     11 O11       -12.3115   -4.4813   53.0659 O.2     1  ZINC000185180600   -0.5300
     12 C12       -12.9357   -4.2864   55.3335 C.3     1  ZINC000185180600   -0.5000
     13 S13       -11.7041   -3.4071   56.3339 S.o     1  ZINC000185180600    1.3200
     14 O14       -10.4002   -3.7252   55.8671 O.2     1  ZINC000185180600   -0.8000
     15 C15       -11.9430   -4.1126   57.9880 C.3     1  ZINC000185180600   -0.3900
     16 C16       -10.9760   -3.4737   58.9511 C.2     1  ZINC000185180600    0.1000
     17 N17       -11.2424   -2.4791   59.7589 N.2     1  ZINC000185180600   -0.2800
     18 N18       -10.0818   -2.1813   60.4849 N.pl3   1  ZINC000185180600   -0.3200
     19 C19        -9.9502   -1.1783   61.4557 C.ar    1  ZINC000185180600    0.1700
     20 C20       -10.7453   -0.0419   61.3936 C.ar    1  ZINC000185180600   -0.1300
     21 C21       -10.6137    0.9447   62.3510 C.ar    1  ZINC000185180600   -0.0800
     22 C22        -9.6899    0.8015   63.3714 C.ar    1  ZINC000185180600   -0.0500
     23 Cl23       -9.5270    2.0434   64.5735 Cl      1  ZINC000185180600   -0.0600
     24 C24        -8.8964   -0.3305   63.4355 C.ar    1  ZINC000185180600   -0.0800
     25 C25        -9.0286   -1.3226   62.4839 C.ar    1  ZINC000185180600   -0.1100
     26 C26        -9.1110   -3.0326   60.0834 C.2     1  ZINC000185180600    0.0600
     27 C27        -9.6405   -3.8457   59.1400 C.2     1  ZINC000185180600   -0.2500
     28 H28        -9.4139   -1.8818   52.8976 H       1  ZINC000185180600    0.0500
     29 H29       -10.7509   -2.8146   52.1831 H       1  ZINC000185180600    0.0600
     30 H30       -10.0728   -1.4197   51.3100 H       1  ZINC000185180600    0.0500
     31 H31       -11.5753   -1.2990   53.9641 H       1  ZINC000185180600    0.0700
     32 H32        -9.8655    0.4490   53.8069 H       1  ZINC000185180600    0.0500
     33 H33       -10.4006    0.8638   52.1607 H       1  ZINC000185180600    0.0500
     34 H34       -11.4703    1.1743   53.5491 H       1  ZINC000185180600    0.0500
     35 H35       -13.2451   -0.0263   52.5248 H       1  ZINC000185180600    0.0700
     36 H36       -12.3328   -0.5819   51.1011 H       1  ZINC000185180600    0.0800
     37 H37       -15.2896   -1.2402   52.2360 H       1  ZINC000185180600    0.0600
     38 H38       -14.7023   -1.6243   50.6001 H       1  ZINC000185180600    0.0700
     39 H39       -15.2807   -2.9268   51.6667 H       1  ZINC000185180600    0.0600
     40 H40       -15.1275   -2.0662   54.6342 H       1  ZINC000185180600    0.0600
     41 H41       -13.6069   -1.9782   55.5552 H       1  ZINC000185180600    0.0700
     42 H42       -13.9742   -0.7465   54.3238 H       1  ZINC000185180600    0.0800
     43 H43       -13.9319   -4.0933   55.7315 H       1  ZINC000185180600    0.1500
     44 H44       -12.7327   -5.3568   55.3657 H       1  ZINC000185180600    0.1200
     45 H45       -12.9641   -3.9239   58.3195 H       1  ZINC000185180600    0.1400
     46 H46       -11.7648   -5.1875   57.9537 H       1  ZINC000185180600    0.1000
     47 H47       -11.4658    0.0707   60.5969 H       1  ZINC000185180600    0.1400
     48 H48       -11.2319    1.8290   62.3030 H       1  ZINC000185180600    0.1500
     49 H49        -8.1759   -0.4399   64.2326 H       1  ZINC000185180600    0.1400
     50 H50        -8.4090   -2.2058   62.5344 H       1  ZINC000185180600    0.1500
     51 H51        -8.0965   -3.0616   60.4527 H       1  ZINC000185180600    0.1800
     52 H52        -9.1216   -4.6369   58.6194 H       1  ZINC000185180600    0.1700
@<TRIPOS>BOND
     1     1     2    1
     2     1    28    1
     3     1    29    1
     4     1    30    1
     5     2     3    1
     6     2     4    1
     7     2    31    1
     8     3    32    1
     9     3    33    1
    10     3    34    1
    11     4     5    1
    12     4    35    1
    13     4    36    1
    14     5     6    1
    15     5     7    1
    16     5     8    1
    17     7    37    1
    18     7    38    1
    19     7    39    1
    20     8     9    1
    21     8    10   am
    22     9    40    1
    23     9    41    1
    24     9    42    1
    25    10    11    2
    26    10    12    1
    27    12    13    1
    28    12    43    1
    29    12    44    1
    30    13    14    2
    31    13    15    1
    32    15    16    1
    33    15    45    1
    34    15    46    1
    35    16    27    1
    36    16    17    2
    37    17    18    1
    38    18    19    1
    39    18    26    1
    40    19    25   ar
    41    19    20   ar
    42    20    21   ar
    43    20    47    1
    44    21    22   ar
    45    21    48    1
    46    22    23    1
    47    22    24   ar
    48    24    25   ar
    49    24    49    1
    50    25    50    1
    51    26    27    2
    52    26    51    1
    53    27    52    1
@<TRIPOS>SUBSTRUCTURE
     1 ZINC000185180600        1 TEMP              0 ****  ****    0 ROOT


##########                                Name:    ZINC000581017854
##########                DOCK_Rotatable_Bonds:                   6
##########                         Heavy_Atoms:                  24
##########                    Molecular_Weight:             330.334
##########                DOCK_Rotatable_Bonds:                   6
##########                       Formal_Charge:           0.0099998
##########                     HBond_Acceptors:                   6
##########                        HBond_Donors:                   2
##########                         Heavy_Atoms:                  24
##########                          Grid_Score:          -34.777985
##########                     Grid_vdw_energy:          -32.238503
##########                      Grid_es_energy:           -2.539480
##########           Internal_energy_repulsive:            9.897193

@<TRIPOS>MOLECULE
ZINC000581017854
 40 42 1 0 0
SMALL
USER_CHARGES


@<TRIPOS>ATOM
      1 C1        -14.3261   -5.4066   57.2914 C.3     1  ZINC000581017854   -0.1600
      2 C2        -13.0256   -4.9436   56.6316 C.3     1  ZINC000581017854    0.1500
      3 H3        -12.4336   -5.8130   56.3455 H       1  ZINC000581017854    0.1100
      4 C4        -13.3517   -4.1166   55.3864 C.3     1  ZINC000581017854    0.0500
      5 O5        -12.1802   -3.9909   54.5777 O.3     1  ZINC000581017854   -0.3100
      6 C6        -12.2880   -3.2442   53.4473 C.ar    1  ZINC000581017854    0.1600
      7 C7        -11.1467   -2.8455   52.7669 C.ar    1  ZINC000581017854   -0.2200
      8 C8        -11.2575   -2.0863   51.6177 C.ar    1  ZINC000581017854   -0.0500
      9 C9        -12.5044   -1.7230   51.1450 C.ar    1  ZINC000581017854   -0.1900
     10 C10       -13.6461   -2.1190   51.8220 C.ar    1  ZINC000581017854    0.1400
     11 F11       -14.8640   -1.7628   51.3583 F       1  ZINC000581017854   -0.1300
     12 C12       -13.5396   -2.8847   52.9692 C.ar    1  ZINC000581017854   -0.1900
     13 N13       -12.2636   -4.1235   57.5766 N.am    1  ZINC000581017854   -0.7300
     14 C14       -11.0650   -4.5480   58.0232 C.2     1  ZINC000581017854    0.5900
     15 O15       -10.6163   -5.6130   57.6425 O.2     1  ZINC000581017854   -0.5400
     16 C16       -10.3000   -3.7249   58.9696 C.2     1  ZINC000581017854   -0.2200
     17 C17        -8.9613   -3.7976   59.2175 C.2     1  ZINC000581017854    0.1100
     18 N18        -8.6177   -2.8790   60.1527 N.pl3   1  ZINC000581017854   -0.5700
     19 C19        -9.7269   -2.1642   60.5559 C.ar    1  ZINC000581017854    0.1100
     20 C20        -9.9137   -1.1336   61.4707 C.ar    1  ZINC000581017854   -0.1600
     21 C21       -11.1740   -0.6058   61.6650 C.ar    1  ZINC000581017854    0.1200
     22 F22       -11.3508    0.3957   62.5543 F       1  ZINC000581017854   -0.1400
     23 C23       -12.2623   -1.0949   60.9535 C.ar    1  ZINC000581017854   -0.1700
     24 C24       -12.0951   -2.1156   60.0433 C.ar    1  ZINC000581017854   -0.0300
     25 C25       -10.8277   -2.6527   59.8339 C.ar    1  ZINC000581017854   -0.0700
     26 H26       -14.8930   -6.0168   56.5882 H       1  ZINC000581017854    0.0700
     27 H27       -14.0936   -5.9957   58.1784 H       1  ZINC000581017854    0.0700
     28 H28       -14.9180   -4.5372   57.5774 H       1  ZINC000581017854    0.0700
     29 H29       -14.1358   -4.6137   54.8152 H       1  ZINC000581017854    0.0700
     30 H30       -13.6936   -3.1262   55.6872 H       1  ZINC000581017854    0.0800
     31 H31       -10.1718   -3.1281   53.1356 H       1  ZINC000581017854    0.1400
     32 H32       -10.3687   -1.7761   51.0884 H       1  ZINC000581017854    0.1400
     33 H33       -12.5886   -1.1294   50.2467 H       1  ZINC000581017854    0.1400
     34 H34       -14.4294   -3.1940   53.4974 H       1  ZINC000581017854    0.1400
     35 H35       -12.6218   -3.2751   57.8810 H       1  ZINC000581017854    0.4000
     36 H36        -8.2775   -4.4840   58.7404 H       1  ZINC000581017854    0.1800
     37 H37        -7.7188   -2.7434   60.4914 H       1  ZINC000581017854    0.4200
     38 H38        -9.0738   -0.7469   62.0287 H       1  ZINC000581017854    0.1400
     39 H39       -13.2435   -0.6736   61.1149 H       1  ZINC000581017854    0.1400
     40 H40       -12.9428   -2.4945   59.4917 H       1  ZINC000581017854    0.1500
@<TRIPOS>BOND
     1     1     2    1
     2     1    26    1
     3     1    27    1
     4     1    28    1
     5     2     3    1
     6     2     4    1
     7     2    13    1
     8     4     5    1
     9     4    29    1
    10     4    30    1
    11     5     6    1
    12     6    12   ar
    13     6     7   ar
    14     7     8   ar
    15     7    31    1
    16     8     9   ar
    17     8    32    1
    18     9    10   ar
    19     9    33    1
    20    10    11    1
    21    10    12   ar
    22    12    34    1
    23    13    14   am
    24    13    35    1
    25    14    15    2
    26    14    16    1
    27    16    25    1
    28    16    17    2
    29    17    18    1
    30    17    36    1
    31    18    19    1
    32    18    37    1
    33    19    25   ar
    34    19    20   ar
    35    20    21   ar
    36    20    38    1
    37    21    22    1
    38    21    23   ar
    39    23    24   ar
    40    23    39    1
    41    24    25   ar
    42    24    40    1
@<TRIPOS>SUBSTRUCTURE
     1 ZINC000581017854        1 TEMP              0 ****  ****    0 ROOT


##########                                Name:    ZINC000426805817
##########                DOCK_Rotatable_Bonds:                   6
##########                         Heavy_Atoms:                  26
##########                    Molecular_Weight:             412.286
##########                DOCK_Rotatable_Bonds:                   6
##########                       Formal_Charge:          -0.0100001
##########                     HBond_Acceptors:                   5
##########                        HBond_Donors:                   4
##########                         Heavy_Atoms:                  26
##########                          Grid_Score:          -34.759586
##########                     Grid_vdw_energy:          -33.558350
##########                      Grid_es_energy:           -1.201238
##########           Internal_energy_repulsive:            7.049202

@<TRIPOS>MOLECULE
ZINC000426805817
 44 47 1 0 0
SMALL
USER_CHARGES


@<TRIPOS>ATOM
      1 O1         -6.5229   -0.7397   50.6991 O.co2   1  ZINC000426805817   -0.6300
      2 C2         -7.4307   -0.3918   51.4349 C.2     1  ZINC000426805817    0.5000
      3 O3         -8.2631   -1.2036   51.8020 O.co2   1  ZINC000426805817   -0.6800
      4 C4         -7.5206    1.0402   51.8955 C.3     1  ZINC000426805817   -0.0500
      5 H5         -7.0042    1.1482   52.8494 H       1  ZINC000426805817    0.1300
      6 C6         -6.8669    1.9525   50.8556 C.3     1  ZINC000426805817   -0.0500
      7 C7         -5.5305    2.4229   51.3692 C.2     1  ZINC000426805817   -0.1900
      8 C8         -5.2973    3.0451   52.5356 C.2     1  ZINC000426805817    0.0500
      9 N9         -3.9626    3.3196   52.6592 N.pl3   1  ZINC000426805817   -0.5900
     10 C10        -3.2867    2.8690   51.5467 C.ar    1  ZINC000426805817    0.1100
     11 C11        -1.9492    2.8912   51.1667 C.ar    1  ZINC000426805817   -0.1200
     12 C12        -1.5683    2.3466   49.9600 C.ar    1  ZINC000426805817   -0.0700
     13 C13        -2.5082    1.7726   49.1139 C.ar    1  ZINC000426805817   -0.1100
     14 Br14       -1.9588    1.0319   47.4630 Br      1  ZINC000426805817   -0.0400
     15 C15        -3.8379    1.7394   49.4706 C.ar    1  ZINC000426805817   -0.0400
     16 C16        -4.2385    2.2821   50.6931 C.ar    1  ZINC000426805817   -0.1000
     17 N17        -8.9318    1.4149   52.0576 N.4     1  ZINC000426805817   -0.4800
     18 H18        -9.1163    2.2621   51.5415 H       1  ZINC000426805817    0.4000
     19 H19        -9.5191    0.6730   51.7073 H       1  ZINC000426805817    0.4200
     20 C20        -9.2193    1.6362   53.4811 C.3     1  ZINC000426805817    0.0400
     21 C21       -10.0259    0.4812   54.0162 C.ar    1  ZINC000426805817   -0.1600
     22 C22        -9.7962    0.0068   55.3033 C.ar    1  ZINC000426805817    0.1100
     23 N23        -8.9261    0.3705   56.3066 N.pl3   1  ZINC000426805817   -0.5900
     24 C24        -9.1113   -0.4344   57.3975 C.2     1  ZINC000426805817    0.0600
     25 C25       -10.0830   -1.3265   57.1484 C.2     1  ZINC000426805817   -0.2000
     26 C26       -10.5591   -1.0722   55.7867 C.ar    1  ZINC000426805817   -0.1100
     27 C27       -11.5344   -1.6543   54.9751 C.ar    1  ZINC000426805817   -0.0400
     28 C28       -11.7433   -1.1723   53.7136 C.ar    1  ZINC000426805817   -0.1500
     29 C29       -10.9971   -0.1048   53.2341 C.ar    1  ZINC000426805817   -0.0700
     30 H30        -6.7254    1.4011   49.9262 H       1  ZINC000426805817    0.1200
     31 H31        -7.5095    2.8138   50.6728 H       1  ZINC000426805817    0.0900
     32 H32        -6.0516    3.2927   53.2677 H       1  ZINC000426805817    0.1700
     33 H33        -3.5533    3.7651   53.4175 H       1  ZINC000426805817    0.4200
     34 H34        -1.2099    3.3354   51.8167 H       1  ZINC000426805817    0.1300
     35 H35        -0.5284    2.3666   49.6690 H       1  ZINC000426805817    0.1400
     36 H36        -4.5662    1.2922   48.8104 H       1  ZINC000426805817    0.1400
     37 H37        -8.2827    1.7121   54.0334 H       1  ZINC000426805817    0.1500
     38 H38        -9.7859    2.5600   53.5980 H       1  ZINC000426805817    0.1300
     39 H39        -8.2780    1.0899   56.2484 H       1  ZINC000426805817    0.4300
     40 H40        -8.5576   -0.3627   58.3219 H       1  ZINC000426805817    0.1800
     41 H41       -10.4448   -2.0876   57.8239 H       1  ZINC000426805817    0.1500
     42 H42       -12.1215   -2.4829   55.3429 H       1  ZINC000426805817    0.1300
     43 H43       -12.4980   -1.6231   53.0860 H       1  ZINC000426805817    0.1300
     44 H44       -11.1738    0.2649   52.2348 H       1  ZINC000426805817    0.1300
@<TRIPOS>BOND
     1     1     2   ar
     2     2     3   ar
     3     2     4    1
     4     4     5    1
     5     4     6    1
     6     4    17    1
     7     6     7    1
     8     6    30    1
     9     6    31    1
    10     7    16    1
    11     7     8    2
    12     8     9    1
    13     8    32    1
    14     9    10    1
    15     9    33    1
    16    10    16   ar
    17    10    11   ar
    18    11    12   ar
    19    11    34    1
    20    12    13   ar
    21    12    35    1
    22    13    14    1
    23    13    15   ar
    24    15    16   ar
    25    15    36    1
    26    17    18    1
    27    17    19    1
    28    17    20    1
    29    20    21    1
    30    20    37    1
    31    20    38    1
    32    21    29   ar
    33    21    22   ar
    34    22    26   ar
    35    22    23    1
    36    23    24    1
    37    23    39    1
    38    24    25    2
    39    24    40    1
    40    25    26    1
    41    25    41    1
    42    26    27   ar
    43    27    28   ar
    44    27    42    1
    45    28    29   ar
    46    28    43    1
    47    29    44    1
@<TRIPOS>SUBSTRUCTURE
     1 ZINC000426805817        1 TEMP              0 ****  ****    0 ROOT


##########                                Name:    ZINC000440379747
##########                DOCK_Rotatable_Bonds:                   8
##########                         Heavy_Atoms:                  27
##########                    Molecular_Weight:             394.452
##########                DOCK_Rotatable_Bonds:                   8
##########                       Formal_Charge:           0.0199995
##########                     HBond_Acceptors:                  10
##########                        HBond_Donors:                   3
##########                         Heavy_Atoms:                  27
##########                          Grid_Score:          -34.746117
##########                     Grid_vdw_energy:          -31.019737
##########                      Grid_es_energy:           -3.726381
##########           Internal_energy_repulsive:           23.368132

@<TRIPOS>MOLECULE
ZINC000440379747
 49 51 1 0 0
SMALL
USER_CHARGES


@<TRIPOS>ATOM
      1 C1        -11.6455   -1.3454   52.5781 C.3     1  ZINC000440379747   -0.1800
      2 C2        -11.6300   -1.2910   54.0840 C.2     1  ZINC000440379747    0.5200
      3 O3        -12.4855   -1.8691   54.7206 O.2     1  ZINC000440379747   -0.5200
      4 N4        -10.6657   -0.5998   54.7235 N.am    1  ZINC000440379747   -0.5500
      5 C5         -9.5830    0.1364   54.0656 C.3     1  ZINC000440379747    0.1100
      6 C6         -8.7567    0.7467   55.2093 C.3     1  ZINC000440379747   -0.0900
      7 C7         -9.4583    0.2943   56.4702 C.ar    1  ZINC000440379747   -0.1100
      8 C8         -9.1719    0.5333   57.7994 C.ar    1  ZINC000440379747   -0.0700
      9 C9         -9.9812   -0.0021   58.7936 C.ar    1  ZINC000440379747    0.1200
     10 N10        -9.6928    0.2394   60.1403 N.am    1  ZINC000440379747   -0.6400
     11 C11        -9.5742   -0.7922   60.9996 C.2     1  ZINC000440379747    0.5100
     12 O12        -9.7178   -1.9309   60.6043 O.2     1  ZINC000440379747   -0.4900
     13 C13        -9.2662   -0.5343   62.4378 C.2     1  ZINC000440379747    0.5200
     14 O14        -8.5260   -1.2814   63.0434 O.2     1  ZINC000440379747   -0.5100
     15 N15        -9.8103    0.5283   63.0635 N.am    1  ZINC000440379747   -0.5800
     16 C16       -10.7217    1.5121   62.4509 C.3     1  ZINC000440379747    0.1000
     17 C17       -11.5205    2.1054   63.6381 C.3     1  ZINC000440379747   -0.1300
     18 C18       -10.4362    2.1612   64.7465 C.3     1  ZINC000440379747   -0.1600
     19 C19        -9.5983    0.8947   64.4713 C.3     1  ZINC000440379747    0.1500
     20 H20        -9.9254    0.0850   65.1236 H       1  ZINC000440379747    0.1000
     21 C21        -8.1161    1.1892   64.7110 C.3     1  ZINC000440379747   -0.6500
     22 S22        -7.5486    0.2819   66.1757 S.o2    1  ZINC000440379747    2.6200
     23 N23        -8.3951    0.9527   67.4309 N.am    1  ZINC000440379747   -1.2500
     24 O24        -7.9962   -1.0660   66.1318 O.2     1  ZINC000440379747   -0.9500
     25 O25        -6.1921    0.5945   66.4612 O.2     1  ZINC000440379747   -0.9500
     26 C26       -11.0787   -0.7784   58.4430 C.ar    1  ZINC000440379747   -0.1000
     27 C27       -11.3626   -1.0156   57.1159 C.ar    1  ZINC000440379747   -0.1400
     28 C28       -10.5552   -0.4749   56.1132 C.ar    1  ZINC000440379747    0.1400
     29 H29       -12.4922   -1.9455   52.2449 H       1  ZINC000440379747    0.1000
     30 H30       -11.7367   -0.3353   52.1790 H       1  ZINC000440379747    0.1000
     31 H31       -10.7188   -1.7948   52.2213 H       1  ZINC000440379747    0.1000
     32 H32        -8.9679   -0.5431   53.4756 H       1  ZINC000440379747    0.0900
     33 H33        -9.9915    0.9239   53.4324 H       1  ZINC000440379747    0.0900
     34 H34        -7.7354    0.3665   55.1853 H       1  ZINC000440379747    0.0900
     35 H35        -8.7600    1.8346   55.1419 H       1  ZINC000440379747    0.1000
     36 H36        -8.3174    1.1371   58.0668 H       1  ZINC000440379747    0.1400
     37 H37        -9.5782    1.1493   60.4562 H       1  ZINC000440379747    0.4200
     38 H38       -10.1530    2.2941   61.9477 H       1  ZINC000440379747    0.0800
     39 H39       -11.3948    1.0199   61.7489 H       1  ZINC000440379747    0.1000
     40 H40       -11.8888    3.1036   63.4013 H       1  ZINC000440379747    0.1000
     41 H41       -12.3398    1.4465   63.9260 H       1  ZINC000440379747    0.0800
     42 H42        -9.8277    3.0598   64.6458 H       1  ZINC000440379747    0.1000
     43 H43       -10.8924    2.1117   65.7352 H       1  ZINC000440379747    0.1000
     44 H44        -7.5381    0.8746   63.8422 H       1  ZINC000440379747    0.1500
     45 H45        -7.9795    2.2587   64.8706 H       1  ZINC000440379747    0.1400
     46 H46        -9.3646    0.9207   67.4341 H       1  ZINC000440379747    0.4100
     47 H47        -7.9216    1.3778   68.1630 H       1  ZINC000440379747    0.4200
     48 H48       -11.7104   -1.1970   59.2124 H       1  ZINC000440379747    0.1400
     49 H49       -12.2170   -1.6202   56.8495 H       1  ZINC000440379747    0.1500
@<TRIPOS>BOND
     1     1     2    1
     2     1    29    1
     3     1    30    1
     4     1    31    1
     5     2     3    2
     6     2     4   am
     7     4    28    1
     8     4     5    1
     9     5     6    1
    10     5    32    1
    11     5    33    1
    12     6     7    1
    13     6    34    1
    14     6    35    1
    15     7    28   ar
    16     7     8   ar
    17     8     9   ar
    18     8    36    1
    19     9    10    1
    20     9    26   ar
    21    10    11   am
    22    10    37    1
    23    11    12    2
    24    11    13    1
    25    13    14    2
    26    13    15   am
    27    15    19    1
    28    15    16    1
    29    16    17    1
    30    16    38    1
    31    16    39    1
    32    17    18    1
    33    17    40    1
    34    17    41    1
    35    18    19    1
    36    18    42    1
    37    18    43    1
    38    19    20    1
    39    19    21    1
    40    21    22    1
    41    21    44    1
    42    21    45    1
    43    22    23   am
    44    22    24    2
    45    22    25    2
    46    23    46    1
    47    23    47    1
    48    26    27   ar
    49    26    48    1
    50    27    28   ar
    51    27    49    1
@<TRIPOS>SUBSTRUCTURE
     1 ZINC000440379747        1 TEMP              0 ****  ****    0 ROOT


##########                                Name:    ZINC000534799364
##########                DOCK_Rotatable_Bonds:                   4
##########                         Heavy_Atoms:                  29
##########                    Molecular_Weight:             391.491
##########                DOCK_Rotatable_Bonds:                   4
##########                       Formal_Charge:           0.0199998
##########                     HBond_Acceptors:                   6
##########                        HBond_Donors:                   0
##########                         Heavy_Atoms:                  29
##########                          Grid_Score:          -34.739151
##########                     Grid_vdw_energy:          -34.034275
##########                      Grid_es_energy:           -0.704876
##########           Internal_energy_repulsive:           20.138798

@<TRIPOS>MOLECULE
ZINC000534799364
 55 59 1 0 0
SMALL
USER_CHARGES


@<TRIPOS>ATOM
      1 C1        -10.9831    1.3455   60.2378 C.3     1  ZINC000534799364   -0.1100
      2 C2        -10.1970    0.7468   61.3756 C.ar    1  ZINC000534799364   -0.0200
      3 C3         -9.8820    1.5002   62.4942 C.ar    1  ZINC000534799364   -0.1700
      4 C4         -9.1593    0.9179   63.5191 C.ar    1  ZINC000534799364    0.1000
      5 N5         -8.7689   -0.3393   63.4439 N.ar    1  ZINC000534799364   -0.4800
      6 C6         -9.0472   -1.0916   62.3978 C.ar    1  ZINC000534799364    0.0800
      7 C7         -9.7743   -0.5799   61.3308 C.ar    1  ZINC000534799364    0.0300
      8 N8        -10.0677   -1.3804   60.2241 N.3     1  ZINC000534799364   -0.5000
      9 C9        -11.3806   -2.0237   60.3727 C.3     1  ZINC000534799364    0.0600
     10 C10       -11.6987   -2.8258   59.1087 C.3     1  ZINC000534799364    0.0600
     11 N11       -10.6463   -3.8278   58.8895 N.3     1  ZINC000534799364   -0.5300
     12 C12       -10.9549   -4.6695   57.7258 C.3     1  ZINC000534799364    0.1400
     13 C13       -11.4889   -3.8083   56.6104 C.2     1  ZINC000534799364    0.1100
     14 N14       -10.8700   -2.7956   56.0609 N.2     1  ZINC000534799364   -0.2800
     15 N15       -11.6989   -2.2634   55.0660 N.pl3   1  ZINC000534799364   -0.3100
     16 C16       -11.4015   -1.1672   54.2433 C.ar    1  ZINC000534799364    0.1500
     17 C17       -11.9248   -1.0999   52.9591 C.ar    1  ZINC000534799364   -0.1000
     18 C18       -11.6308   -0.0196   52.1504 C.ar    1  ZINC000534799364   -0.1300
     19 C19       -10.8147    0.9959   52.6197 C.ar    1  ZINC000534799364    0.1000
     20 F20       -10.5285    2.0520   51.8274 F       1  ZINC000534799364   -0.1300
     21 C21       -10.2918    0.9305   53.9005 C.ar    1  ZINC000534799364   -0.1300
     22 C22       -10.5882   -0.1453   54.7141 C.ar    1  ZINC000534799364   -0.0800
     23 C23       -12.8390   -2.9947   55.0387 C.2     1  ZINC000534799364    0.0500
     24 C24       -12.7319   -3.9590   55.9795 C.2     1  ZINC000534799364   -0.2200
     25 C25       -13.9810   -4.8138   55.9976 C.3     1  ZINC000534799364   -0.0400
     26 C26       -15.0437   -3.9853   55.2433 C.3     1  ZINC000534799364   -0.1200
     27 C27       -14.1688   -3.1028   54.3247 C.3     1  ZINC000534799364   -0.0500
     28 C28        -9.3334   -3.1845   58.7409 C.3     1  ZINC000534799364    0.0600
     29 C29        -9.0153   -2.3824   60.0050 C.3     1  ZINC000534799364    0.0600
     30 H30       -12.0408    1.1158   60.3664 H       1  ZINC000534799364    0.0800
     31 H31       -10.8445    2.4266   60.2296 H       1  ZINC000534799364    0.0600
     32 H32       -10.6326    0.9271   59.2943 H       1  ZINC000534799364    0.0800
     33 H33       -10.1969    2.5308   62.5649 H       1  ZINC000534799364    0.1400
     34 H34        -8.9106    1.5011   64.3934 H       1  ZINC000534799364    0.1600
     35 H35        -8.7101   -2.1173   62.3721 H       1  ZINC000534799364    0.1500
     36 H36       -11.3624   -2.6929   61.2330 H       1  ZINC000534799364    0.0500
     37 H37       -12.1447   -1.2607   60.5212 H       1  ZINC000534799364    0.0800
     38 H38       -12.6591   -3.3273   59.2282 H       1  ZINC000534799364    0.0900
     39 H39       -11.7439   -2.1526   58.2525 H       1  ZINC000534799364    0.0500
     40 H40       -10.0485   -5.1750   57.3925 H       1  ZINC000534799364    0.1000
     41 H41       -11.7039   -5.4115   58.0025 H       1  ZINC000534799364    0.0500
     42 H42       -12.5610   -1.8919   52.5928 H       1  ZINC000534799364    0.1400
     43 H43       -12.0374    0.0328   51.1513 H       1  ZINC000534799364    0.1500
     44 H44        -9.6552    1.7233   54.2646 H       1  ZINC000534799364    0.1500
     45 H45       -10.1806   -0.1959   55.7129 H       1  ZINC000534799364    0.1400
     46 H46       -13.8013   -5.7578   55.4831 H       1  ZINC000534799364    0.0800
     47 H47       -14.3005   -4.9958   57.0237 H       1  ZINC000534799364    0.0700
     48 H48       -15.6953   -4.6312   54.6548 H       1  ZINC000534799364    0.0800
     49 H49       -15.6244   -3.3750   55.9349 H       1  ZINC000534799364    0.0800
     50 H50       -14.6159   -2.1154   54.2101 H       1  ZINC000534799364    0.0800
     51 H51       -14.0424   -3.5776   53.3517 H       1  ZINC000534799364    0.0900
     52 H52        -8.5693   -3.9475   58.5924 H       1  ZINC000534799364    0.0900
     53 H53        -9.3517   -2.5154   57.8806 H       1  ZINC000534799364    0.0500
     54 H54        -8.0549   -1.8809   59.8854 H       1  ZINC000534799364    0.0800
     55 H55        -8.9703   -3.0556   60.8610 H       1  ZINC000534799364    0.0500
@<TRIPOS>BOND
     1     1     2    1
     2     1    30    1
     3     1    31    1
     4     1    32    1
     5     2     7   ar
     6     2     3   ar
     7     3     4   ar
     8     3    33    1
     9     4     5   ar
    10     4    34    1
    11     5     6   ar
    12     6     7   ar
    13     6    35    1
    14     7     8    1
    15     8    29    1
    16     8     9    1
    17     9    10    1
    18     9    36    1
    19     9    37    1
    20    10    11    1
    21    10    38    1
    22    10    39    1
    23    11    12    1
    24    11    28    1
    25    12    13    1
    26    12    40    1
    27    12    41    1
    28    13    24    1
    29    13    14    2
    30    14    15    1
    31    15    16    1
    32    15    23    1
    33    16    22   ar
    34    16    17   ar
    35    17    18   ar
    36    17    42    1
    37    18    19   ar
    38    18    43    1
    39    19    20    1
    40    19    21   ar
    41    21    22   ar
    42    21    44    1
    43    22    45    1
    44    23    27    1
    45    23    24    2
    46    24    25    1
    47    25    26    1
    48    25    46    1
    49    25    47    1
    50    26    27    1
    51    26    48    1
    52    26    49    1
    53    27    50    1
    54    27    51    1
    55    28    29    1
    56    28    52    1
    57    28    53    1
    58    29    54    1
    59    29    55    1
@<TRIPOS>SUBSTRUCTURE
     1 ZINC000534799364        1 TEMP              0 ****  ****    0 ROOT


##########                                Name:    ZINC000185598309
##########                DOCK_Rotatable_Bonds:                  14
##########                         Heavy_Atoms:                  25
##########                    Molecular_Weight:             347.457
##########                DOCK_Rotatable_Bonds:                  14
##########                       Formal_Charge:               -0.02
##########                     HBond_Acceptors:                   6
##########                        HBond_Donors:                   4
##########                         Heavy_Atoms:                  25
##########                          Grid_Score:          -34.723244
##########                     Grid_vdw_energy:          -31.748421
##########                      Grid_es_energy:           -2.974822
##########           Internal_energy_repulsive:           10.927141

@<TRIPOS>MOLECULE
ZINC000185598309
 54 54 1 0 0
SMALL
USER_CHARGES


@<TRIPOS>ATOM
      1 C1        -11.5207   -2.8972   52.4252 C.3     1  ZINC000185598309   -0.1300
      2 C2        -12.3678   -3.5928   53.4595 C.2     1  ZINC000185598309   -0.1600
      3 C3        -13.1314   -2.8915   54.2601 C.2     1  ZINC000185598309   -0.1600
      4 C4        -13.9772   -3.5869   55.2955 C.3     1  ZINC000185598309   -0.0900
      5 C5        -13.0979   -4.5222   56.1278 C.3     1  ZINC000185598309    0.1700
      6 H6        -12.2269   -4.8182   55.5430 H       1  ZINC000185598309    0.1000
      7 C7        -13.8999   -5.7667   56.5140 C.3     1  ZINC000185598309    0.0600
      8 O8        -14.7495   -5.4611   57.6215 O.3     1  ZINC000185598309   -0.5700
      9 N9        -12.6587   -3.8285   57.3411 N.am    1  ZINC000185598309   -0.7300
     10 C10       -11.3809   -3.4153   57.4561 C.2     1  ZINC000185598309    0.7000
     11 O11       -10.5932   -3.6171   56.5522 O.2     1  ZINC000185598309   -0.5900
     12 N12       -10.9766   -2.7784   58.5729 N.am    1  ZINC000185598309   -0.7400
     13 C13        -9.5872   -2.3310   58.6985 C.3     1  ZINC000185598309    0.1800
     14 C14        -9.3928   -1.6661   60.0370 C.ar    1  ZINC000185598309   -0.0900
     15 C15        -8.8005   -2.3622   61.0742 C.ar    1  ZINC000185598309   -0.1100
     16 C16        -8.6206   -1.7557   62.3041 C.ar    1  ZINC000185598309   -0.1000
     17 C17        -9.0322   -0.4521   62.4996 C.ar    1  ZINC000185598309   -0.1100
     18 C18        -9.6272    0.2500   61.4594 C.ar    1  ZINC000185598309    0.1400
     19 N19       -10.0449    1.5712   61.6540 N.am    1  ZINC000185598309   -0.6800
     20 C20       -11.2985    1.8261   62.0783 C.2     1  ZINC000185598309    0.5200
     21 O21       -12.0646    0.9102   62.2913 O.2     1  ZINC000185598309   -0.5200
     22 C22       -11.7484    3.2490   62.2878 C.3     1  ZINC000185598309   -0.1100
     23 H23       -12.8275    3.2703   62.4402 H       1  ZINC000185598309    0.1000
     24 C24       -11.3907    4.0836   61.0564 C.3     1  ZINC000185598309   -0.1500
     25 C25       -11.0481    3.8293   63.5183 C.3     1  ZINC000185598309   -0.1100
     26 C26       -12.0223    4.7274   64.2833 C.3     1  ZINC000185598309   -0.1600
     27 C27        -9.8016   -0.3600   60.2243 C.ar    1  ZINC000185598309   -0.1300
     28 H28       -10.9581   -3.6386   51.8579 H       1  ZINC000185598309    0.0600
     29 H29       -12.1631   -2.3331   51.7490 H       1  ZINC000185598309    0.0600
     30 H30       -10.8281   -2.2168   52.9207 H       1  ZINC000185598309    0.0600
     31 H31       -12.3451   -4.6696   53.5407 H       1  ZINC000185598309    0.1100
     32 H32       -13.1550   -1.8148   54.1780 H       1  ZINC000185598309    0.1100
     33 H33       -14.4368   -2.8442   55.9477 H       1  ZINC000185598309    0.0900
     34 H34       -14.7559   -4.1662   54.7992 H       1  ZINC000185598309    0.0800
     35 H35       -14.5075   -6.0846   55.6668 H       1  ZINC000185598309    0.0500
     36 H36       -13.2154   -6.5683   56.7914 H       1  ZINC000185598309    0.0500
     37 H37       -15.3761   -4.7446   57.4506 H       1  ZINC000185598309    0.3800
     38 H38       -13.2875   -3.6664   58.0617 H       1  ZINC000185598309    0.4000
     39 H39       -11.6053   -2.6165   59.2935 H       1  ZINC000185598309    0.4000
     40 H40        -8.9203   -3.1894   58.6190 H       1  ZINC000185598309    0.0700
     41 H41        -9.3611   -1.6203   57.9035 H       1  ZINC000185598309    0.0800
     42 H42        -8.4777   -3.3817   60.9239 H       1  ZINC000185598309    0.1300
     43 H43        -8.1582   -2.3023   63.1127 H       1  ZINC000185598309    0.1300
     44 H44        -8.8918    0.0207   63.4604 H       1  ZINC000185598309    0.1300
     45 H45        -9.4323    2.3037   61.4836 H       1  ZINC000185598309    0.4100
     46 H46       -11.8896    3.6702   60.1799 H       1  ZINC000185598309    0.0600
     47 H47       -11.7160    5.1128   61.2080 H       1  ZINC000185598309    0.0800
     48 H48       -10.3116    4.0623   60.9041 H       1  ZINC000185598309    0.0600
     49 H49       -10.7183    3.0167   64.1656 H       1  ZINC000185598309    0.0700
     50 H50       -10.1851    4.4154   63.2024 H       1  ZINC000185598309    0.0700
     51 H51       -12.3521    5.5400   63.6360 H       1  ZINC000185598309    0.0600
     52 H52       -12.8853    4.1413   64.5992 H       1  ZINC000185598309    0.0600
     53 H53       -11.5234    5.1409   65.1598 H       1  ZINC000185598309    0.0600
     54 H54       -10.2639    0.1834   59.4135 H       1  ZINC000185598309    0.1300
@<TRIPOS>BOND
     1     1     2    1
     2     1    28    1
     3     1    29    1
     4     1    30    1
     5     2     3    2
     6     2    31    1
     7     3     4    1
     8     3    32    1
     9     4     5    1
    10     4    33    1
    11     4    34    1
    12     5     6    1
    13     5     7    1
    14     5     9    1
    15     7     8    1
    16     7    35    1
    17     7    36    1
    18     8    37    1
    19     9    10   am
    20     9    38    1
    21    10    11    2
    22    10    12   am
    23    12    13    1
    24    12    39    1
    25    13    14    1
    26    13    40    1
    27    13    41    1
    28    14    27   ar
    29    14    15   ar
    30    15    16   ar
    31    15    42    1
    32    16    17   ar
    33    16    43    1
    34    17    18   ar
    35    17    44    1
    36    18    19    1
    37    18    27   ar
    38    19    20   am
    39    19    45    1
    40    20    21    2
    41    20    22    1
    42    22    23    1
    43    22    24    1
    44    22    25    1
    45    24    46    1
    46    24    47    1
    47    24    48    1
    48    25    26    1
    49    25    49    1
    50    25    50    1
    51    26    51    1
    52    26    52    1
    53    26    53    1
    54    27    54    1
@<TRIPOS>SUBSTRUCTURE
     1 ZINC000185598309        1 TEMP              0 ****  ****    0 ROOT


##########                                Name:    ZINC000637608314
##########                DOCK_Rotatable_Bonds:                   9
##########                         Heavy_Atoms:                  28
##########                    Molecular_Weight:             387.479
##########                DOCK_Rotatable_Bonds:                   9
##########                       Formal_Charge:           0.0499991
##########                     HBond_Acceptors:                   7
##########                        HBond_Donors:                   2
##########                         Heavy_Atoms:                  28
##########                          Grid_Score:          -34.703739
##########                     Grid_vdw_energy:          -33.448185
##########                      Grid_es_energy:           -1.255556
##########           Internal_energy_repulsive:           16.717497

@<TRIPOS>MOLECULE
ZINC000637608314
 57 59 1 0 0
SMALL
USER_CHARGES


@<TRIPOS>ATOM
      1 C1         -9.7666   -0.1035   59.6723 C.3     1  ZINC000637608314   -0.1400
      2 C2        -10.3559   -1.4563   60.0769 C.3     1  ZINC000637608314   -0.0400
      3 C3         -9.2433   -2.3556   60.6193 C.3     1  ZINC000637608314   -0.1500
      4 C4        -11.4161   -1.2471   61.1600 C.3     1  ZINC000637608314   -0.1500
      5 C5        -10.9880   -2.1087   58.8745 C.2     1  ZINC000637608314    0.1900
      6 C6        -11.9105   -1.4308   58.1525 C.2     1  ZINC000637608314   -0.2400
      7 C7        -12.5024   -2.0317   57.0327 C.2     1  ZINC000637608314    0.0200
      8 C8        -12.1375   -3.2992   56.6851 C.2     1  ZINC000637608314   -0.2400
      9 C9        -12.7579   -3.9683   55.4857 C.3     1  ZINC000637608314    0.2100
     10 N10       -12.1584   -3.4305   54.2620 N.am    1  ZINC000637608314   -0.7300
     11 C11       -12.9453   -2.9205   53.2938 C.2     1  ZINC000637608314    0.7100
     12 O12       -14.1528   -2.9082   53.4355 O.2     1  ZINC000637608314   -0.5900
     13 N13       -12.3937   -2.4243   52.1687 N.am    1  ZINC000637608314   -0.6200
     14 C14       -10.9389   -2.4408   51.9973 C.3     1  ZINC000637608314    0.2000
     15 C15       -10.3425   -1.2194   52.6481 C.2     1  ZINC000637608314   -0.0400
     16 C16        -9.0944   -0.7560   52.4562 C.2     1  ZINC000637608314   -0.1900
     17 C17        -8.9593    0.4010   53.2575 C.2     1  ZINC000637608314   -0.2200
     18 C18       -10.1330    0.5755   53.8911 C.2     1  ZINC000637608314   -0.0300
     19 O19       -10.9688   -0.4058   53.5137 O.3     1  ZINC000637608314   -0.1700
     20 C20       -13.2489   -1.8684   51.1172 C.3     1  ZINC000637608314    0.1300
     21 C21       -13.6456   -0.4375   51.4857 C.3     1  ZINC000637608314    0.0700
     22 H22       -13.8372   -0.3712   52.5567 H       1  ZINC000637608314    0.0900
     23 C23       -14.9098   -0.0258   50.7010 C.3     1  ZINC000637608314   -0.1500
     24 C24       -14.6070    1.4543   50.3414 C.3     1  ZINC000637608314   -0.1600
     25 C25       -13.0721    1.3995   50.1378 C.3     1  ZINC000637608314    0.0500
     26 O26       -12.5954    0.4666   51.1232 O.3     1  ZINC000637608314   -0.3800
     27 C27       -11.1764   -3.9744   57.4569 C.2     1  ZINC000637608314    0.5300
     28 O28       -10.8404   -5.1088   57.1567 O.2     1  ZINC000637608314   -0.5400
     29 N29       -10.6219   -3.3682   58.5237 N.am    1  ZINC000637608314   -0.6000
     30 H30        -9.0112   -0.2524   58.9007 H       1  ZINC000637608314    0.0700
     31 H31       -10.5592    0.5372   59.2860 H       1  ZINC000637608314    0.0700
     32 H32        -9.3094    0.3685   60.5420 H       1  ZINC000637608314    0.0700
     33 H33        -8.7861   -1.8837   61.4890 H       1  ZINC000637608314    0.0700
     34 H34        -9.6631   -3.3193   60.9077 H       1  ZINC000637608314    0.0600
     35 H35        -8.4879   -2.5045   59.8477 H       1  ZINC000637608314    0.0700
     36 H36       -12.2088   -0.6065   60.7736 H       1  ZINC000637608314    0.0700
     37 H37       -11.8360   -2.2109   61.4483 H       1  ZINC000637608314    0.0600
     38 H38       -10.9590   -0.7752   62.0297 H       1  ZINC000637608314    0.0700
     39 H39       -12.1907   -0.4279   58.4390 H       1  ZINC000637608314    0.1500
     40 H40       -13.2396   -1.4971   56.4520 H       1  ZINC000637608314    0.1400
     41 H41       -12.5793   -5.0424   55.5361 H       1  ZINC000637608314    0.0800
     42 H42       -13.8312   -3.7783   55.4784 H       1  ZINC000637608314    0.0800
     43 H43       -11.1951   -3.4414   54.1485 H       1  ZINC000637608314    0.4000
     44 H44       -10.5283   -3.3372   52.4620 H       1  ZINC000637608314    0.1200
     45 H45       -10.6982   -2.4401   50.9342 H       1  ZINC000637608314    0.0900
     46 H46        -8.3400   -1.1856   51.8138 H       1  ZINC000637608314    0.1500
     47 H47        -8.0821    1.0249   53.3445 H       1  ZINC000637608314    0.1500
     48 H48       -10.3651    1.3716   54.5828 H       1  ZINC000637608314    0.2000
     49 H49       -12.7057   -1.8629   50.1721 H       1  ZINC000637608314    0.0800
     50 H50       -14.1457   -2.4798   51.0172 H       1  ZINC000637608314    0.1000
     51 H51       -15.0206   -0.6292   49.8000 H       1  ZINC000637608314    0.0800
     52 H52       -15.7974   -0.0987   51.3295 H       1  ZINC000637608314    0.0900
     53 H53       -15.1151    1.7471   49.4224 H       1  ZINC000637608314    0.0800
     54 H54       -14.8709    2.1201   51.1631 H       1  ZINC000637608314    0.0800
     55 H55       -12.8359    1.0449   49.1345 H       1  ZINC000637608314    0.0600
     56 H56       -12.6328    2.3830   50.3054 H       1  ZINC000637608314    0.0800
     57 H57        -9.9588   -3.8394   59.0521 H       1  ZINC000637608314    0.4100
@<TRIPOS>BOND
     1     1     2    1
     2     1    30    1
     3     1    31    1
     4     1    32    1
     5     2     3    1
     6     2     4    1
     7     2     5    1
     8     3    33    1
     9     3    34    1
    10     3    35    1
    11     4    36    1
    12     4    37    1
    13     4    38    1
    14     5    29    1
    15     5     6    2
    16     6     7    1
    17     6    39    1
    18     7     8    2
    19     7    40    1
    20     8     9    1
    21     8    27    1
    22     9    10    1
    23     9    41    1
    24     9    42    1
    25    10    11   am
    26    10    43    1
    27    11    12    2
    28    11    13   am
    29    13    14    1
    30    13    20    1
    31    14    15    1
    32    14    44    1
    33    14    45    1
    34    15    19    1
    35    15    16    2
    36    16    17    1
    37    16    46    1
    38    17    18    2
    39    17    47    1
    40    18    19    1
    41    18    48    1
    42    20    21    1
    43    20    49    1
    44    20    50    1
    45    21    22    1
    46    21    26    1
    47    21    23    1
    48    23    24    1
    49    23    51    1
    50    23    52    1
    51    24    25    1
    52    24    53    1
    53    24    54    1
    54    25    26    1
    55    25    55    1
    56    25    56    1
    57    27    28    2
    58    27    29   am
    59    29    57    1
@<TRIPOS>SUBSTRUCTURE
     1 ZINC000637608314        1 TEMP              0 ****  ****    0 ROOT


##########                                Name:    ZINC001500042809
##########                DOCK_Rotatable_Bonds:                   9
##########                         Heavy_Atoms:                  24
##########                    Molecular_Weight:              346.45
##########                DOCK_Rotatable_Bonds:                   9
##########                       Formal_Charge:           0.0200001
##########                     HBond_Acceptors:                   6
##########                        HBond_Donors:                   2
##########                         Heavy_Atoms:                  24
##########                          Grid_Score:          -34.688145
##########                     Grid_vdw_energy:          -35.027763
##########                      Grid_es_energy:            0.339620
##########           Internal_energy_repulsive:           17.197897

@<TRIPOS>MOLECULE
ZINC001500042809
 46 47 1 0 0
SMALL
USER_CHARGES


@<TRIPOS>ATOM
      1 C1         -9.7047   -0.7921   61.4468 C.3     1  ZINC001500042809    0.0200
      2 O2         -8.9603   -1.7334   60.6711 O.3     1  ZINC001500042809   -0.3100
      3 C3         -9.5276   -2.1661   59.5167 C.ar    1  ZINC001500042809    0.1600
      4 C4         -9.9618   -3.4822   59.4085 C.ar    1  ZINC001500042809   -0.1600
      5 C5        -10.5376   -3.9252   58.2387 C.ar    1  ZINC001500042809   -0.0200
      6 C6        -10.6855   -3.0496   57.1597 C.ar    1  ZINC001500042809   -0.1800
      7 C7        -11.3022   -3.5204   55.9041 C.2     1  ZINC001500042809    0.5600
      8 O8        -12.2123   -4.3259   55.9383 O.2     1  ZINC001500042809   -0.5300
      9 N9        -10.8565   -3.0573   54.7194 N.am    1  ZINC001500042809   -0.7300
     10 C10       -11.4697   -3.5232   53.4731 C.3     1  ZINC001500042809    0.1300
     11 C11       -12.3635   -2.4209   52.9013 C.3     1  ZINC001500042809   -0.1200
     12 H12       -12.4208   -2.5251   51.8178 H       1  ZINC001500042809    0.0900
     13 C13       -13.7664   -2.5398   53.5001 C.3     1  ZINC001500042809   -0.1500
     14 C14       -11.7737   -1.0532   53.2517 C.3     1  ZINC001500042809    0.1300
     15 N15       -10.4745   -0.8984   52.5927 N.am    1  ZINC001500042809   -0.7300
     16 C16        -9.6255    0.0677   52.9955 C.2     1  ZINC001500042809    0.5900
     17 O17        -9.9387    0.8124   53.9056 O.2     1  ZINC001500042809   -0.5200
     18 C18        -8.3247    0.2215   52.3373 C.2     1  ZINC001500042809   -0.2800
     19 C19        -7.5999    1.3781   52.2746 C.2     1  ZINC001500042809   -0.0100
     20 C20        -8.0559    2.6761   52.8899 C.3     1  ZINC001500042809   -0.1100
     21 C21        -6.4129    1.2399   51.5949 C.2     1  ZINC001500042809   -0.1500
     22 C22        -6.1723    0.0134   51.1167 C.2     1  ZINC001500042809   -0.2200
     23 S23        -7.4438   -1.0546   51.5084 S.3     1  ZINC001500042809    0.1900
     24 C24       -10.2430   -1.7289   57.2707 C.ar    1  ZINC001500042809   -0.0400
     25 C25        -9.6726   -1.2923   58.4456 C.ar    1  ZINC001500042809   -0.2200
     26 H26        -9.8846    0.1051   60.8546 H       1  ZINC001500042809    0.0600
     27 H27       -10.6582   -1.2335   61.7366 H       1  ZINC001500042809    0.0600
     28 H28        -9.1389   -0.5299   62.3408 H       1  ZINC001500042809    0.1000
     29 H29        -9.8471   -4.1582   60.2429 H       1  ZINC001500042809    0.1400
     30 H30       -10.8741   -4.9480   58.1552 H       1  ZINC001500042809    0.1400
     31 H31       -10.1297   -2.4155   54.6920 H       1  ZINC001500042809    0.4000
     32 H32       -12.0703   -4.4106   53.6733 H       1  ZINC001500042809    0.0800
     33 H33       -10.6888   -3.7677   52.7532 H       1  ZINC001500042809    0.0800
     34 H34       -14.1864   -3.5142   53.2506 H       1  ZINC001500042809    0.0600
     35 H35       -13.7089   -2.4357   54.5836 H       1  ZINC001500042809    0.0600
     36 H36       -14.4031   -1.7545   53.0928 H       1  ZINC001500042809    0.0600
     37 H37       -12.4493   -0.2684   52.9119 H       1  ZINC001500042809    0.0800
     38 H38       -11.6445   -0.9791   54.3315 H       1  ZINC001500042809    0.0800
     39 H39       -10.2253   -1.4913   51.8665 H       1  ZINC001500042809    0.4000
     40 H40        -7.6921    2.7396   53.9154 H       1  ZINC001500042809    0.0800
     41 H41        -7.6602    3.5111   52.3116 H       1  ZINC001500042809    0.0700
     42 H42        -9.1451    2.7163   52.8876 H       1  ZINC001500042809    0.0900
     43 H43        -5.7253    2.0610   51.4566 H       1  ZINC001500042809    0.1500
     44 H44        -5.2890   -0.2642   50.5606 H       1  ZINC001500042809    0.1700
     45 H45       -10.3516   -1.0505   56.4375 H       1  ZINC001500042809    0.1300
     46 H46        -9.3333   -0.2708   58.5333 H       1  ZINC001500042809    0.1400
@<TRIPOS>BOND
     1     1     2    1
     2     1    26    1
     3     1    27    1
     4     1    28    1
     5     2     3    1
     6     3    25   ar
     7     3     4   ar
     8     4     5   ar
     9     4    29    1
    10     5     6   ar
    11     5    30    1
    12     6     7    1
    13     6    24   ar
    14     7     8    2
    15     7     9   am
    16     9    10    1
    17     9    31    1
    18    10    11    1
    19    10    32    1
    20    10    33    1
    21    11    12    1
    22    11    13    1
    23    11    14    1
    24    13    34    1
    25    13    35    1
    26    13    36    1
    27    14    15    1
    28    14    37    1
    29    14    38    1
    30    15    16   am
    31    15    39    1
    32    16    17    2
    33    16    18    1
    34    18    23    1
    35    18    19    2
    36    19    20    1
    37    19    21    1
    38    20    40    1
    39    20    41    1
    40    20    42    1
    41    21    22    2
    42    21    43    1
    43    22    23    1
    44    22    44    1
    45    24    25   ar
    46    24    45    1
    47    25    46    1
@<TRIPOS>SUBSTRUCTURE
     1 ZINC001500042809        1 TEMP              0 ****  ****    0 ROOT


##########                                Name:    ZINC001271977984
##########                DOCK_Rotatable_Bonds:                   7
##########                         Heavy_Atoms:                  24
##########                    Molecular_Weight:             328.371
##########                DOCK_Rotatable_Bonds:                   7
##########                       Formal_Charge:           0.0200001
##########                     HBond_Acceptors:                   7
##########                        HBond_Donors:                   0
##########                         Heavy_Atoms:                  24
##########                          Grid_Score:          -34.660370
##########                     Grid_vdw_energy:          -33.687611
##########                      Grid_es_energy:           -0.972761
##########           Internal_energy_repulsive:           15.360113

@<TRIPOS>MOLECULE
ZINC001271977984
 44 46 1 0 0
SMALL
USER_CHARGES


@<TRIPOS>ATOM
      1 C1        -14.4001   -5.5393   55.5914 C.3     1  ZINC001271977984   -0.1800
      2 C2        -14.4007   -4.1194   56.1614 C.3     1  ZINC001271977984    0.1700
      3 H3        -15.3178   -3.9555   56.7272 H       1  ZINC001271977984    0.1100
      4 C4        -13.2115   -3.9423   57.0698 C.2     1  ZINC001271977984    0.2700
      5 N5        -13.0362   -2.9390   57.8762 N.2     1  ZINC001271977984   -0.4700
      6 C6        -11.8597   -3.1088   58.5382 C.ar    1  ZINC001271977984    0.0200
      7 C7        -11.1770   -2.3648   59.5014 C.ar    1  ZINC001271977984   -0.0600
      8 C8         -9.9709   -2.8189   59.9868 C.ar    1  ZINC001271977984   -0.1200
      9 C9         -9.4314   -4.0099   59.5244 C.ar    1  ZINC001271977984   -0.0900
     10 C10       -10.0949   -4.7554   58.5721 C.ar    1  ZINC001271977984   -0.0900
     11 C11       -11.3103   -4.3136   58.0728 C.ar    1  ZINC001271977984    0.0100
     12 O12       -12.1847   -4.8015   57.1656 O.3     1  ZINC001271977984   -0.2100
     13 N13       -14.3247   -3.1497   55.0604 N.3     1  ZINC001271977984   -0.5300
     14 C14       -14.9325   -1.8687   55.4443 C.3     1  ZINC001271977984    0.0000
     15 C15       -12.9363   -2.9624   54.6188 C.3     1  ZINC001271977984    0.0400
     16 C16       -12.9087   -2.7324   53.1065 C.3     1  ZINC001271977984    0.1200
     17 N17       -11.7754   -1.8694   52.7642 N.am    1  ZINC001271977984   -0.6000
     18 C18       -12.0111   -0.4971   52.3087 C.3     1  ZINC001271977984    0.0800
     19 C19       -10.5160   -2.3379   52.8685 C.2     1  ZINC001271977984    0.6000
     20 O20       -10.3204   -3.4770   53.2466 O.2     1  ZINC001271977984   -0.5300
     21 C21        -9.3756   -1.4694   52.5241 C.2     1  ZINC001271977984   -0.0800
     22 C22        -9.1098   -0.2401   53.0438 C.2     1  ZINC001271977984    0.0200
     23 O23        -7.9832    0.1970   52.4587 O.3     1  ZINC001271977984   -0.2000
     24 C24        -7.5658   -0.7428   51.5986 C.2     1  ZINC001271977984    0.1800
     25 N25        -8.3876   -1.7486   51.6312 N.2     1  ZINC001271977984   -0.4600
     26 H26       -15.2603   -5.6674   54.9343 H       1  ZINC001271977984    0.0800
     27 H27       -13.4831   -5.7032   55.0255 H       1  ZINC001271977984    0.0800
     28 H28       -14.4566   -6.2588   56.4082 H       1  ZINC001271977984    0.0700
     29 H29       -11.5928   -1.4366   59.8646 H       1  ZINC001271977984    0.1400
     30 H30        -9.4416   -2.2437   60.7322 H       1  ZINC001271977984    0.1400
     31 H31        -8.4847   -4.3559   59.9124 H       1  ZINC001271977984    0.1400
     32 H32        -9.6686   -5.6819   58.2167 H       1  ZINC001271977984    0.1400
     33 H33       -14.4054   -1.4603   56.3066 H       1  ZINC001271977984    0.0300
     34 H34       -14.8627   -1.1694   54.6112 H       1  ZINC001271977984    0.0700
     35 H35       -15.9804   -2.0258   55.6999 H       1  ZINC001271977984    0.1100
     36 H36       -12.5073   -2.0979   55.1257 H       1  ZINC001271977984    0.0500
     37 H37       -12.3545   -3.8516   54.8618 H       1  ZINC001271977984    0.0800
     38 H38       -12.8040   -3.6894   52.5953 H       1  ZINC001271977984    0.0900
     39 H39       -13.8370   -2.2536   52.7948 H       1  ZINC001271977984    0.0900
     40 H40       -11.9350    0.1850   53.1555 H       1  ZINC001271977984    0.0600
     41 H41       -11.2663   -0.2302   51.5590 H       1  ZINC001271977984    0.0900
     42 H42       -13.0075   -0.4251   51.8726 H       1  ZINC001271977984    0.0700
     43 H43        -9.6940    0.2844   53.7854 H       1  ZINC001271977984    0.2300
     44 H44        -6.6838   -0.6757   50.9790 H       1  ZINC001271977984    0.2600
@<TRIPOS>BOND
     1     1     2    1
     2     1    26    1
     3     1    27    1
     4     1    28    1
     5     2     3    1
     6     2     4    1
     7     2    13    1
     8     4    12    1
     9     4     5    2
    10     5     6    1
    11     6    11   ar
    12     6     7   ar
    13     7     8   ar
    14     7    29    1
    15     8     9   ar
    16     8    30    1
    17     9    10   ar
    18     9    31    1
    19    10    11   ar
    20    10    32    1
    21    11    12    1
    22    13    14    1
    23    13    15    1
    24    14    33    1
    25    14    34    1
    26    14    35    1
    27    15    16    1
    28    15    36    1
    29    15    37    1
    30    16    17    1
    31    16    38    1
    32    16    39    1
    33    17    18    1
    34    17    19   am
    35    18    40    1
    36    18    41    1
    37    18    42    1
    38    19    20    2
    39    19    21    1
    40    21    25    1
    41    21    22    2
    42    22    23    1
    43    22    43    1
    44    23    24    1
    45    24    25    2
    46    24    44    1
@<TRIPOS>SUBSTRUCTURE
     1 ZINC001271977984        1 TEMP              0 ****  ****    0 ROOT


##########                                Name:    ZINC000265724350
##########                DOCK_Rotatable_Bonds:                   8
##########                         Heavy_Atoms:                  23
##########                    Molecular_Weight:              345.42
##########                DOCK_Rotatable_Bonds:                   8
##########                       Formal_Charge:          -0.0300002
##########                     HBond_Acceptors:                   9
##########                        HBond_Donors:                   2
##########                         Heavy_Atoms:                  23
##########                          Grid_Score:          -34.640438
##########                     Grid_vdw_energy:          -35.039368
##########                      Grid_es_energy:            0.398929
##########           Internal_energy_repulsive:            6.197913

@<TRIPOS>MOLECULE
ZINC000265724350
 46 47 1 0 0
SMALL
USER_CHARGES


@<TRIPOS>ATOM
      1 C1         -8.2990    3.2448   50.5420 C.3     1  ZINC000265724350    0.0800
      2 N2         -7.5442    2.0559   50.1380 N.am    1  ZINC000265724350   -1.1100
      3 S3         -6.7819    1.1313   51.2809 S.o2    1  ZINC000265724350    2.7200
      4 O4         -6.2778   -0.0108   50.6021 O.2     1  ZINC000265724350   -0.9300
      5 O5         -5.9599    2.0159   52.0299 O.2     1  ZINC000265724350   -0.9300
      6 C6         -8.0205    0.5452   52.3886 C.2     1  ZINC000265724350   -0.5600
      7 C7         -8.4540    1.1877   53.4956 C.2     1  ZINC000265724350   -0.0900
      8 C8         -9.4387    0.3786   54.0838 C.2     1  ZINC000265724350   -0.1400
      9 C9         -9.5577   -0.7303   53.2960 C.2     1  ZINC000265724350   -0.0200
     10 C10       -10.4710   -1.8551   53.5235 C.2     1  ZINC000265724350    0.6000
     11 O11       -10.5477   -2.7519   52.7044 O.2     1  ZINC000265724350   -0.5000
     12 N12       -11.2253   -1.8956   54.6397 N.am    1  ZINC000265724350   -0.7100
     13 C13       -12.1363   -3.0200   54.8677 C.3     1  ZINC000265724350    0.1200
     14 C14       -12.2688   -3.2722   56.3709 C.3     1  ZINC000265724350   -0.1100
     15 H15       -12.5311   -2.3414   56.8738 H       1  ZINC000265724350    0.0800
     16 C16       -13.3635   -4.3119   56.6189 C.3     1  ZINC000265724350   -0.1400
     17 C17       -10.9386   -3.7914   56.9202 C.3     1  ZINC000265724350    0.0600
     18 N18       -10.6909   -3.2010   58.2423 N.3     1  ZINC000265724350   -0.5300
     19 C19       -10.0333   -1.8919   58.1200 C.3     1  ZINC000265724350    0.0100
     20 C20        -9.8486   -1.2872   59.5143 C.3     1  ZINC000265724350    0.0600
     21 O21        -9.1000   -2.1953   60.3269 O.3     1  ZINC000265724350   -0.3900
     22 C22        -9.7118   -3.4803   60.4679 C.3     1  ZINC000265724350    0.0600
     23 C23        -9.8951   -4.1071   59.0833 C.3     1  ZINC000265724350    0.0200
     24 O24        -8.6918   -0.6075   52.2688 O.3     1  ZINC000265724350   -0.1100
     25 H25        -8.7268    3.7207   49.6597 H       1  ZINC000265724350    0.0900
     26 H26        -9.0998    2.9531   51.2217 H       1  ZINC000265724350    0.0600
     27 H27        -7.6322    3.9449   51.0453 H       1  ZINC000265724350    0.0700
     28 H28        -7.4908    1.8105   49.2011 H       1  ZINC000265724350    0.4200
     29 H29        -8.1078    2.1437   53.8594 H       1  ZINC000265724350    0.1800
     30 H30        -9.9945    0.5918   54.9849 H       1  ZINC000265724350    0.1700
     31 H31       -11.1650   -1.1802   55.2919 H       1  ZINC000265724350    0.4100
     32 H32       -13.1155   -2.7846   54.4510 H       1  ZINC000265724350    0.0800
     33 H33       -11.7402   -3.9125   54.3831 H       1  ZINC000265724350    0.0700
     34 H34       -14.3113   -3.9421   56.2277 H       1  ZINC000265724350    0.0500
     35 H35       -13.1013   -5.2428   56.1161 H       1  ZINC000265724350    0.0600
     36 H36       -13.4580   -4.4916   57.6899 H       1  ZINC000265724350    0.0700
     37 H37       -10.9810   -4.8769   57.0092 H       1  ZINC000265724350    0.0800
     38 H38       -10.1321   -3.5137   56.2414 H       1  ZINC000265724350    0.0400
     39 H39        -9.0600   -2.0163   57.6454 H       1  ZINC000265724350    0.0400
     40 H40       -10.6519   -1.2289   57.5149 H       1  ZINC000265724350    0.0900
     41 H41        -9.3104   -0.3428   59.4331 H       1  ZINC000265724350    0.1000
     42 H42       -10.8245   -1.1129   59.9676 H       1  ZINC000265724350    0.0600
     43 H43        -9.0747   -4.1219   61.0765 H       1  ZINC000265724350    0.1000
     44 H44       -10.6837   -3.3697   60.9490 H       1  ZINC000265724350    0.0600
     45 H45       -10.4128   -5.0612   59.1813 H       1  ZINC000265724350    0.0900
     46 H46        -8.9196   -4.2670   58.6241 H       1  ZINC000265724350    0.0400
@<TRIPOS>BOND
     1     1     2    1
     2     1    25    1
     3     1    26    1
     4     1    27    1
     5     2     3   am
     6     2    28    1
     7     3     4    2
     8     3     5    2
     9     3     6    1
    10     6    24    1
    11     6     7    2
    12     7     8    1
    13     7    29    1
    14     8     9    2
    15     8    30    1
    16     9    10    1
    17     9    24    1
    18    10    11    2
    19    10    12   am
    20    12    13    1
    21    12    31    1
    22    13    14    1
    23    13    32    1
    24    13    33    1
    25    14    15    1
    26    14    16    1
    27    14    17    1
    28    16    34    1
    29    16    35    1
    30    16    36    1
    31    17    18    1
    32    17    37    1
    33    17    38    1
    34    18    23    1
    35    18    19    1
    36    19    20    1
    37    19    39    1
    38    19    40    1
    39    20    21    1
    40    20    41    1
    41    20    42    1
    42    21    22    1
    43    22    23    1
    44    22    43    1
    45    22    44    1
    46    23    45    1
    47    23    46    1
@<TRIPOS>SUBSTRUCTURE
     1 ZINC000265724350        1 TEMP              0 ****  ****    0 ROOT


##########                                Name:    ZINC000291036115
##########                DOCK_Rotatable_Bonds:                   5
##########                         Heavy_Atoms:                  22
##########                    Molecular_Weight:             366.193
##########                DOCK_Rotatable_Bonds:                   5
##########                       Formal_Charge:                0.01
##########                     HBond_Acceptors:                   7
##########                        HBond_Donors:                   0
##########                         Heavy_Atoms:                  22
##########                          Grid_Score:          -34.637524
##########                     Grid_vdw_energy:          -33.722878
##########                      Grid_es_energy:           -0.914646
##########           Internal_energy_repulsive:            9.255061

@<TRIPOS>MOLECULE
ZINC000291036115
 35 37 1 0 0
SMALL
USER_CHARGES


@<TRIPOS>ATOM
      1 C1        -11.5691   -0.1713   52.5088 C.3     1  <0>        -0.1500
      2 C2        -10.6301   -1.1671   53.1926 C.3     1  <0>        -0.0400
      3 H3         -9.9639   -0.6323   53.8696 H       1  <0>         0.0900
      4 C4         -9.8021   -1.8973   52.1334 C.3     1  <0>        -0.0200
      5 C5         -8.5872   -1.0743   51.7902 C.2     1  <0>         0.1900
      6 N6         -8.3259    0.1424   52.2037 N.2     1  <0>        -0.4500
      7 C7         -7.1453    0.4679   51.6479 C.2     1  <0>         0.1500
      8 C8         -6.4087    1.7717   51.8177 C.3     1  <0>         0.2300
      9 N9         -5.1283    1.7052   51.1091 N.pl3   1  <0>        -0.3900
     10 C10        -3.9094    1.9434   51.6237 C.2     1  <0>         0.2600
     11 N11        -3.0274    1.7790   50.6714 N.2     1  <0>        -0.5400
     12 C12        -3.6425    1.4371   49.5399 C.2     1  <0>         0.2000
     13 N13        -4.9297    1.3738   49.7589 N.2     1  <0>        -0.3100
     14 N14        -6.7559   -0.5485   50.9380 N.2     1  <0>        -0.3600
     15 O15        -7.5674   -1.4471   51.0111 O.3     1  <0>         0.0900
     16 C16       -11.4420   -2.1681   53.9735 C.ar    1  <0>        -0.0900
     17 C17       -12.1409   -3.1587   53.3096 C.ar    1  <0>        -0.0700
     18 C18       -12.8857   -4.0780   54.0244 C.ar    1  <0>        -0.1400
     19 C19       -12.9318   -4.0066   55.4059 C.ar    1  <0>         0.1300
     20 F20       -13.6592   -4.9048   56.1055 F       1  <0>        -0.1200
     21 C21       -12.2309   -3.0133   56.0709 C.ar    1  <0>        -0.1300
     22 Br22      -12.2918   -2.9139   57.9582 Br      1  <0>        -0.0200
     23 C23       -11.4825   -2.0983   55.3538 C.ar    1  <0>        -0.0500
     24 H24       -10.9818    0.5528   51.9440 H       1  <0>         0.0600
     25 H25       -12.2352   -0.7060   51.8319 H       1  <0>         0.0700
     26 H26       -12.1590    0.3489   53.2635 H       1  <0>         0.0700
     27 H27        -9.4870   -2.8656   52.5224 H       1  <0>         0.1200
     28 H28       -10.4059   -2.0445   51.2380 H       1  <0>         0.1100
     29 H29        -7.0089    2.5841   51.4080 H       1  <0>         0.1300
     30 H30        -6.2286    1.9518   52.8775 H       1  <0>         0.1200
     31 H31        -3.6955    2.2226   52.6449 H       1  <0>         0.2200
     32 H32        -3.1561    1.2400   48.5961 H       1  <0>         0.2200
     33 H33       -12.1053   -3.2143   52.2316 H       1  <0>         0.1400
     34 H34       -13.4319   -4.8516   53.5051 H       1  <0>         0.1500
     35 H35       -10.9360   -1.3239   55.8714 H       1  <0>         0.1400
@<TRIPOS>BOND
     1     1     2    1
     2     1    24    1
     3     1    25    1
     4     1    26    1
     5     2     3    1
     6     2     4    1
     7     2    16    1
     8     4     5    1
     9     4    27    1
    10     4    28    1
    11     5    15    1
    12     5     6    2
    13     6     7    1
    14     7     8    1
    15     7    14    2
    16     8     9    1
    17     8    29    1
    18     8    30    1
    19     9    13    1
    20     9    10    1
    21    10    11    2
    22    10    31    1
    23    11    12    1
    24    12    13    2
    25    12    32    1
    26    14    15    1
    27    16    23   ar
    28    16    17   ar
    29    17    18   ar
    30    17    33    1
    31    18    19   ar
    32    18    34    1
    33    19    20    1
    34    19    21   ar
    35    21    22    1
    36    21    23   ar
    37    23    35    1
@<TRIPOS>SUBSTRUCTURE
     1 <0>         1 TEMP              0 ****  ****    0 ROOT


##########                                Name:    ZINC000482187991
##########                DOCK_Rotatable_Bonds:                  11
##########                         Heavy_Atoms:                  29
##########                    Molecular_Weight:             407.414
##########                DOCK_Rotatable_Bonds:                  11
##########                       Formal_Charge:           0.0299996
##########                     HBond_Acceptors:                   8
##########                        HBond_Donors:                   1
##########                         Heavy_Atoms:                  29
##########                          Grid_Score:          -34.583485
##########                     Grid_vdw_energy:          -33.533478
##########                      Grid_es_energy:           -1.050008
##########           Internal_energy_repulsive:           10.864734

@<TRIPOS>MOLECULE
ZINC000482187991
 52 53 1 0 0
SMALL
USER_CHARGES


@<TRIPOS>ATOM
      1 C1         -9.1182   -3.7858   60.1496 C.3     1  ZINC000482187991    0.0200
      2 O2         -9.5183   -2.6379   59.3984 O.3     1  ZINC000482187991   -0.3000
      3 C3        -10.8427   -2.5173   59.1136 C.ar    1  ZINC000482187991    0.1400
      4 C4        -11.5052   -3.5421   58.4668 C.ar    1  ZINC000482187991   -0.1700
      5 C5        -12.8687   -3.4172   58.1744 C.ar    1  ZINC000482187991   -0.1000
      6 C6        -13.5769   -4.5048   57.4872 C.2     1  ZINC000482187991    0.4000
      7 O7        -14.5279   -5.0395   58.0174 O.2     1  ZINC000482187991   -0.4500
      8 C8        -13.1223   -4.9566   56.1233 C.3     1  ZINC000482187991   -0.1500
      9 C9        -13.9739   -4.2754   55.0502 C.3     1  ZINC000482187991   -0.1300
     10 C10       -13.0911   -3.8427   53.9080 C.2     1  ZINC000482187991    0.5200
     11 O11       -12.2126   -4.5772   53.5087 O.2     1  ZINC000482187991   -0.5200
     12 N12       -13.2778   -2.6394   53.3304 N.am    1  ZINC000482187991   -0.7200
     13 C13       -12.4185   -2.2181   52.2212 C.3     1  ZINC000482187991    0.1500
     14 H14       -12.0279   -3.0979   51.7099 H       1  ZINC000482187991    0.1300
     15 C15       -11.2729   -1.3983   52.7567 C.ar    1  ZINC000482187991   -0.1100
     16 C16       -11.4607   -0.5851   53.8586 C.ar    1  ZINC000482187991   -0.1000
     17 C17       -10.4100    0.1669   54.3497 C.ar    1  ZINC000482187991   -0.1200
     18 C18        -9.1712    0.1054   53.7392 C.ar    1  ZINC000482187991   -0.1100
     19 C19        -8.9832   -0.7086   52.6377 C.ar    1  ZINC000482187991   -0.1200
     20 C20       -10.0329   -1.4639   52.1492 C.ar    1  ZINC000482187991   -0.1000
     21 C21       -13.2324   -1.3755   51.2371 C.3     1  ZINC000482187991    0.2500
     22 F22       -14.2881   -2.1408   50.7300 F       1  ZINC000482187991   -0.1900
     23 F23       -13.7447   -0.2532   51.8966 F       1  ZINC000482187991   -0.2000
     24 C24       -13.5556   -2.2529   58.5393 C.ar    1  ZINC000482187991   -0.1900
     25 C25       -12.8863   -1.2323   59.1858 C.ar    1  ZINC000482187991    0.1400
     26 O26       -13.5526   -0.1012   59.5411 O.3     1  ZINC000482187991   -0.3000
     27 C27       -14.0615    0.7117   58.4817 C.3     1  ZINC000482187991    0.0200
     28 C28       -11.5307   -1.3625   59.4798 C.ar    1  ZINC000482187991    0.0600
     29 O29       -10.8758   -0.3568   60.1162 O.3     1  ZINC000482187991   -0.3100
     30 C30       -10.0537    0.4923   59.3130 C.3     1  ZINC000482187991    0.0400
     31 H31        -8.0399   -3.7593   60.3070 H       1  ZINC000482187991    0.1100
     32 H32        -9.6262   -3.7840   61.1140 H       1  ZINC000482187991    0.0600
     33 H33        -9.3833   -4.6896   59.6010 H       1  ZINC000482187991    0.0600
     34 H34       -10.9721   -4.4386   58.1866 H       1  ZINC000482187991    0.1500
     35 H35       -12.0755   -4.6874   55.9815 H       1  ZINC000482187991    0.1100
     36 H36       -13.2333   -6.0379   56.0430 H       1  ZINC000482187991    0.1100
     37 H37       -14.7250   -4.9753   54.6840 H       1  ZINC000482187991    0.1000
     38 H38       -14.4681   -3.4031   55.4780 H       1  ZINC000482187991    0.1000
     39 H39       -13.9813   -2.0524   53.6490 H       1  ZINC000482187991    0.4100
     40 H40       -12.4285   -0.5370   54.3356 H       1  ZINC000482187991    0.1200
     41 H41       -10.5567    0.8028   55.2102 H       1  ZINC000482187991    0.1300
     42 H42        -8.3504    0.6934   54.1224 H       1  ZINC000482187991    0.1300
     43 H43        -8.0156   -0.7563   52.1605 H       1  ZINC000482187991    0.1300
     44 H44        -9.8860   -2.0997   51.2887 H       1  ZINC000482187991    0.1300
     45 H45       -12.5905   -1.0535   50.4170 H       1  ZINC000482187991    0.1200
     46 H46       -14.6073   -2.1530   58.3151 H       1  ZINC000482187991    0.1500
     47 H47       -13.2373    1.0434   57.8502 H       1  ZINC000482187991    0.0600
     48 H48       -14.7659    0.1320   57.8850 H       1  ZINC000482187991    0.0600
     49 H49       -14.5695    1.5798   58.9017 H       1  ZINC000482187991    0.1100
     50 H50        -9.2784   -0.1030   58.8308 H       1  ZINC000482187991    0.0500
     51 H51       -10.6658    0.9767   58.5520 H       1  ZINC000482187991    0.0500
     52 H52        -9.5899    1.2511   59.9434 H       1  ZINC000482187991    0.1000
@<TRIPOS>BOND
     1     1     2    1
     2     1    31    1
     3     1    32    1
     4     1    33    1
     5     2     3    1
     6     3    28   ar
     7     3     4   ar
     8     4     5   ar
     9     4    34    1
    10     5     6    1
    11     5    24   ar
    12     6     7    2
    13     6     8    1
    14     8     9    1
    15     8    35    1
    16     8    36    1
    17     9    10    1
    18     9    37    1
    19     9    38    1
    20    10    11    2
    21    10    12   am
    22    12    13    1
    23    12    39    1
    24    13    14    1
    25    13    15    1
    26    13    21    1
    27    15    20   ar
    28    15    16   ar
    29    16    17   ar
    30    16    40    1
    31    17    18   ar
    32    17    41    1
    33    18    19   ar
    34    18    42    1
    35    19    20   ar
    36    19    43    1
    37    20    44    1
    38    21    22    1
    39    21    23    1
    40    21    45    1
    41    24    25   ar
    42    24    46    1
    43    25    26    1
    44    25    28   ar
    45    26    27    1
    46    27    47    1
    47    27    48    1
    48    27    49    1
    49    28    29    1
    50    29    30    1
    51    30    50    1
    52    30    51    1
    53    30    52    1
@<TRIPOS>SUBSTRUCTURE
     1 ZINC000482187991        1 TEMP              0 ****  ****    0 ROOT


##########                                Name:    ZINC000052999724
##########                DOCK_Rotatable_Bonds:                   6
##########                         Heavy_Atoms:                  25
##########                    Molecular_Weight:             398.571
##########                DOCK_Rotatable_Bonds:                   6
##########                       Formal_Charge:           0.0399994
##########                     HBond_Acceptors:                   8
##########                        HBond_Donors:                   1
##########                         Heavy_Atoms:                  25
##########                          Grid_Score:          -34.567593
##########                     Grid_vdw_energy:          -35.677425
##########                      Grid_es_energy:            1.109831
##########           Internal_energy_repulsive:           11.223352

@<TRIPOS>MOLECULE
ZINC000052999724
 47 49 1 0 0
SMALL
USER_CHARGES


@<TRIPOS>ATOM
      1 C1        -14.9251   -3.9228   57.3954 C.3     1  ZINC000052999724   -0.1400
      2 C2        -13.6343   -4.7304   57.2461 C.3     1  ZINC000052999724   -0.0400
      3 C3        -13.9770   -6.1782   56.8895 C.3     1  ZINC000052999724   -0.1400
      4 C4        -12.7897   -4.1300   56.1520 C.2     1  ZINC000052999724   -0.0400
      5 C5        -11.4480   -3.9034   56.2773 C.2     1  ZINC000052999724   -0.2600
      6 C6        -10.6425   -4.2021   57.4650 C.2     1  ZINC000052999724    0.6000
      7 O7        -10.3500   -5.3538   57.7280 O.2     1  ZINC000052999724   -0.5200
      8 N8        -10.2257   -3.2012   58.2658 N.am    1  ZINC000052999724   -0.6000
      9 C9        -10.5759   -1.8065   57.9648 C.3     1  ZINC000052999724    0.1100
     10 C10       -11.2345   -1.1857   59.2007 C.3     1  ZINC000052999724   -0.1400
     11 C11       -10.3078   -1.3548   60.4068 C.3     1  ZINC000052999724    0.1500
     12 N12       -10.9200   -0.7330   61.5836 N.am    1  ZINC000052999724   -1.1100
     13 S13       -10.0778    0.3941   62.4569 S.o2    1  ZINC000052999724    2.7200
     14 O14        -8.9852   -0.2931   63.0511 O.2     1  ZINC000052999724   -0.9500
     15 O15        -9.9172    1.5219   61.6072 O.2     1  ZINC000052999724   -0.9400
     16 C16       -11.1187    0.9127   63.7806 C.2     1  ZINC000052999724   -0.8000
     17 C17       -10.6952    1.4337   64.9331 C.2     1  ZINC000052999724    0.0100
     18 C18       -11.6988    1.7681   65.8258 C.2     1  ZINC000052999724   -0.1600
     19 C19       -12.9374    1.5187   65.3982 C.2     1  ZINC000052999724   -0.1700
     20 S20       -12.8756    0.8295   63.7812 S.3     1  ZINC000052999724    0.2100
     21 C21       -10.0843   -2.8448   60.6756 C.3     1  ZINC000052999724   -0.1500
     22 C22        -9.4178   -3.4849   59.4597 C.3     1  ZINC000052999724    0.1100
     23 S23       -10.8425   -3.1967   54.7854 S.3     1  ZINC000052999724    0.2100
     24 C24       -12.3953   -3.2402   54.0798 C.2     1  ZINC000052999724   -0.2400
     25 C25       -13.2912   -3.7610   54.9264 C.2     1  ZINC000052999724   -0.1300
     26 H26       -14.6810   -2.8913   57.6495 H       1  ZINC000052999724    0.0600
     27 H27       -15.4780   -3.9445   56.4563 H       1  ZINC000052999724    0.0600
     28 H28       -15.5360   -4.3571   58.1869 H       1  ZINC000052999724    0.0600
     29 H29       -13.0815   -4.7087   58.1853 H       1  ZINC000052999724    0.0800
     30 H30       -14.5299   -6.2000   55.9503 H       1  ZINC000052999724    0.0600
     31 H31       -13.0574   -6.7537   56.7831 H       1  ZINC000052999724    0.0600
     32 H32       -14.5879   -6.6126   57.6808 H       1  ZINC000052999724    0.0600
     33 H33        -9.6736   -1.2494   57.7129 H       1  ZINC000052999724    0.0800
     34 H34       -11.2719   -1.7772   57.1263 H       1  ZINC000052999724    0.0900
     35 H35       -11.4121   -0.1248   59.0243 H       1  ZINC000052999724    0.0900
     36 H36       -12.1828   -1.6859   59.3976 H       1  ZINC000052999724    0.0800
     37 H37        -9.3509   -0.8759   60.1994 H       1  ZINC000052999724    0.0900
     38 H38       -11.8185   -0.9815   61.8512 H       1  ZINC000052999724    0.4200
     39 H39        -9.6485    1.5830   65.1532 H       1  ZINC000052999724    0.1600
     40 H40       -11.4945    2.1981   66.7952 H       1  ZINC000052999724    0.1500
     41 H41       -13.8404    1.7136   65.9579 H       1  ZINC000052999724    0.1800
     42 H42        -9.4431   -2.9647   61.5488 H       1  ZINC000052999724    0.1000
     43 H43       -11.0434   -3.3293   60.8586 H       1  ZINC000052999724    0.0800
     44 H44        -9.3469   -4.5626   59.6070 H       1  ZINC000052999724    0.1000
     45 H45        -8.4204   -3.0658   59.3268 H       1  ZINC000052999724    0.0800
     46 H46       -12.6238   -2.8968   53.0816 H       1  ZINC000052999724    0.1700
     47 H47       -14.3337   -3.8755   54.6685 H       1  ZINC000052999724    0.1400
@<TRIPOS>BOND
     1     1     2    1
     2     1    26    1
     3     1    27    1
     4     1    28    1
     5     2     3    1
     6     2     4    1
     7     2    29    1
     8     3    30    1
     9     3    31    1
    10     3    32    1
    11     4    25    1
    12     4     5    2
    13     5     6    1
    14     5    23    1
    15     6     7    2
    16     6     8   am
    17     8    22    1
    18     8     9    1
    19     9    10    1
    20     9    33    1
    21     9    34    1
    22    10    11    1
    23    10    35    1
    24    10    36    1
    25    11    12    1
    26    11    21    1
    27    11    37    1
    28    12    13   am
    29    12    38    1
    30    13    14    2
    31    13    15    2
    32    13    16    1
    33    16    20    1
    34    16    17    2
    35    17    18    1
    36    17    39    1
    37    18    19    2
    38    18    40    1
    39    19    20    1
    40    19    41    1
    41    21    22    1
    42    21    42    1
    43    21    43    1
    44    22    44    1
    45    22    45    1
    46    23    24    1
    47    24    25    2
    48    24    46    1
    49    25    47    1
@<TRIPOS>SUBSTRUCTURE
     1 ZINC000052999724        1 TEMP              0 ****  ****    0 ROOT


##########                                Name:    ZINC000668548901
##########                DOCK_Rotatable_Bonds:                   9
##########                         Heavy_Atoms:                  26
##########                    Molecular_Weight:             374.464
##########                DOCK_Rotatable_Bonds:                   9
##########                       Formal_Charge:         3.53903e-07
##########                     HBond_Acceptors:                   8
##########                        HBond_Donors:                   3
##########                         Heavy_Atoms:                  26
##########                          Grid_Score:          -34.563587
##########                     Grid_vdw_energy:          -32.325619
##########                      Grid_es_energy:           -2.237969
##########           Internal_energy_repulsive:            8.456488

@<TRIPOS>MOLECULE
ZINC000668548901
 48 50 1 0 0
SMALL
USER_CHARGES


@<TRIPOS>ATOM
      1 O1        -10.9927   -0.8905   61.8881 O.2     1  ZINC000668548901   -0.5700
      2 C2         -9.9589   -0.3202   61.5981 C.2     1  ZINC000668548901    0.7100
      3 N3         -9.2243   -0.7474   60.5519 N.am    1  ZINC000668548901   -0.6800
      4 C4         -9.6475   -1.8478   59.8051 C.ar    1  ZINC000668548901    0.2200
      5 C5         -9.0399   -3.0947   59.9615 C.ar    1  ZINC000668548901   -0.1700
      6 C6         -9.4837   -4.1595   59.2069 C.ar    1  ZINC000668548901    0.1200
      7 N7        -10.4709   -4.0140   58.3428 N.ar    1  ZINC000668548901   -0.4300
      8 C8        -11.0754   -2.8480   58.1629 C.ar    1  ZINC000668548901    0.1100
      9 S9        -12.3878   -2.7171   56.9946 S.3     1  ZINC000668548901    0.0900
     10 C10       -11.5467   -2.3323   55.4949 C.ar    1  ZINC000668548901    0.0900
     11 C11       -11.4634   -3.2872   54.4867 C.ar    1  ZINC000668548901   -0.1500
     12 C12       -10.8004   -2.9715   53.3143 C.ar    1  ZINC000668548901   -0.0700
     13 C13       -10.2409   -1.7068   53.1892 C.ar    1  ZINC000668548901   -0.1700
     14 C14       -10.3615   -0.8078   54.2304 C.ar    1  ZINC000668548901    0.1000
     15 N15       -11.0039   -1.1345   55.3354 N.ar    1  ZINC000668548901   -0.4200
     16 C16       -10.6889   -1.7304   58.8905 C.ar    1  ZINC000668548901   -0.1800
     17 N17        -9.5502    0.7425   62.3193 N.am    1  ZINC000668548901   -0.7200
     18 C18       -10.3487    1.2067   63.4563 C.3     1  ZINC000668548901    0.1700
     19 H19       -11.1084    0.4623   63.6950 H       1  ZINC000668548901    0.1000
     20 C20       -11.0267    2.5304   63.0969 C.3     1  ZINC000668548901    0.0600
     21 O21       -11.4944    2.4751   61.7478 O.3     1  ZINC000668548901   -0.5700
     22 C22        -9.4382    1.4128   64.6686 C.3     1  ZINC000668548901   -0.1300
     23 H23        -8.8372    2.3106   64.5242 H       1  ZINC000668548901    0.1000
     24 C24        -8.5165    0.1999   64.8286 C.3     1  ZINC000668548901   -0.1200
     25 C25        -7.6649    0.3823   66.0887 C.3     1  ZINC000668548901   -0.1600
     26 C26        -8.5876    0.5741   67.2953 C.3     1  ZINC000668548901    0.0600
     27 O27        -9.4388    1.6992   67.0682 O.3     1  ZINC000668548901   -0.3800
     28 C28       -10.2924    1.5663   65.9297 C.3     1  ZINC000668548901    0.0700
     29 H29        -8.4016   -0.2900   60.3181 H       1  ZINC000668548901    0.4100
     30 H30        -8.2309   -3.2236   60.6655 H       1  ZINC000668548901    0.1500
     31 H31        -9.0169   -5.1264   59.3243 H       1  ZINC000668548901    0.1600
     32 H32       -11.9099   -4.2618   54.6175 H       1  ZINC000668548901    0.1400
     33 H33       -10.7194   -3.6927   52.5144 H       1  ZINC000668548901    0.1400
     34 H34        -9.7165   -1.4292   52.2868 H       1  ZINC000668548901    0.1400
     35 H35        -9.9276    0.1768   54.1375 H       1  ZINC000668548901    0.1600
     36 H36       -11.1832   -0.7817   58.7419 H       1  ZINC000668548901    0.1400
     37 H37        -8.7275    1.1999   62.0854 H       1  ZINC000668548901    0.4000
     38 H38       -11.8695    2.7005   63.7669 H       1  ZINC000668548901    0.0500
     39 H39       -10.3103    3.3453   63.2001 H       1  ZINC000668548901    0.0600
     40 H40       -10.7981    2.3141   61.0964 H       1  ZINC000668548901    0.3800
     41 H41        -9.1172   -0.7048   64.9222 H       1  ZINC000668548901    0.0700
     42 H42        -7.8662    0.1188   63.9576 H       1  ZINC000668548901    0.0700
     43 H43        -7.0454   -0.5016   66.2408 H       1  ZINC000668548901    0.0800
     44 H44        -7.0280    1.2593   65.9742 H       1  ZINC000668548901    0.0700
     45 H45        -9.1958   -0.3199   67.4336 H       1  ZINC000668548901    0.0500
     46 H46        -7.9869    0.7470   68.1883 H       1  ZINC000668548901    0.1000
     47 H47       -10.9195    2.4534   65.8402 H       1  ZINC000668548901    0.1000
     48 H48       -10.9232    0.6856   66.0492 H       1  ZINC000668548901    0.0500
@<TRIPOS>BOND
     1     1     2    2
     2     2     3   am
     3     2    17   am
     4     3     4    1
     5     3    29    1
     6     4    16   ar
     7     4     5   ar
     8     5     6   ar
     9     5    30    1
    10     6     7   ar
    11     6    31    1
    12     7     8   ar
    13     8     9    1
    14     8    16   ar
    15     9    10    1
    16    10    15   ar
    17    10    11   ar
    18    11    12   ar
    19    11    32    1
    20    12    13   ar
    21    12    33    1
    22    13    14   ar
    23    13    34    1
    24    14    15   ar
    25    14    35    1
    26    16    36    1
    27    17    18    1
    28    17    37    1
    29    18    19    1
    30    18    20    1
    31    18    22    1
    32    20    21    1
    33    20    38    1
    34    20    39    1
    35    21    40    1
    36    22    23    1
    37    22    28    1
    38    22    24    1
    39    24    25    1
    40    24    41    1
    41    24    42    1
    42    25    26    1
    43    25    43    1
    44    25    44    1
    45    26    27    1
    46    26    45    1
    47    26    46    1
    48    27    28    1
    49    28    47    1
    50    28    48    1
@<TRIPOS>SUBSTRUCTURE
     1 ZINC000668548901        1 TEMP              0 ****  ****    0 ROOT


##########                                Name:    ZINC000981048968
##########                DOCK_Rotatable_Bonds:                   7
##########                         Heavy_Atoms:                  25
##########                    Molecular_Weight:             344.414
##########                DOCK_Rotatable_Bonds:                   7
##########                       Formal_Charge:                0.02
##########                     HBond_Acceptors:                   7
##########                        HBond_Donors:                   2
##########                         Heavy_Atoms:                  25
##########                          Grid_Score:          -34.557663
##########                     Grid_vdw_energy:          -33.650417
##########                      Grid_es_energy:           -0.907245
##########           Internal_energy_repulsive:            5.726922

@<TRIPOS>MOLECULE
ZINC000981048968
 49 52 1 0 0
SMALL
USER_CHARGES


@<TRIPOS>ATOM
      1 C1         -5.7849    2.6922   52.2231 C.3     1  ZINC000981048968   -0.0800
      2 C2         -6.5623    1.4229   51.9874 C.2     1  ZINC000981048968   -0.0100
      3 C3         -7.7936    1.1665   52.4550 C.2     1  ZINC000981048968   -0.1600
      4 C4         -8.1367   -0.1794   51.9731 C.2     1  ZINC000981048968   -0.2300
      5 C5         -9.3871   -0.9208   52.2160 C.2     1  ZINC000981048968    0.5900
      6 O6         -9.6619   -1.8895   51.5341 O.2     1  ZINC000981048968   -0.5300
      7 N7        -10.2260   -0.5250   53.1939 N.am    1  ZINC000981048968   -0.7300
      8 C8        -11.4698   -1.2609   53.4342 C.3     1  ZINC000981048968    0.1500
      9 H9        -11.4836   -2.1615   52.8204 H       1  ZINC000981048968    0.0900
     10 C10       -12.6640   -0.3767   53.0694 C.3     1  ZINC000981048968   -0.1300
     11 C11       -13.9630   -1.1451   53.3204 C.3     1  ZINC000981048968   -0.1200
     12 C12       -14.0485   -1.5336   54.7978 C.3     1  ZINC000981048968   -0.1100
     13 C13       -12.8543   -2.4177   55.1626 C.3     1  ZINC000981048968    0.1000
     14 H14       -12.8680   -3.3183   54.5487 H       1  ZINC000981048968    0.0500
     15 N15       -12.9364   -2.7907   56.5810 N.3     1  ZINC000981048968   -0.6800
     16 C16       -12.5739   -4.2008   56.7766 C.3     1  ZINC000981048968    0.1500
     17 C17       -11.4357   -4.2952   57.7597 C.2     1  ZINC000981048968    0.1800
     18 N18       -10.8260   -5.3818   58.1283 N.2     1  ZINC000981048968   -0.3800
     19 O19        -9.9543   -5.1225   58.9310 O.3     1  ZINC000981048968    0.0800
     20 C20        -9.9241   -3.8058   59.1574 C.2     1  ZINC000981048968    0.2100
     21 C21        -8.9890   -3.0761   60.0870 C.3     1  ZINC000981048968   -0.0800
     22 C22        -9.1259   -1.5548   60.1757 C.3     1  ZINC000981048968   -0.1600
     23 C23        -9.5942   -2.4341   61.3370 C.3     1  ZINC000981048968   -0.1500
     24 N24       -10.8605   -3.2694   58.4124 N.2     1  ZINC000981048968   -0.4600
     25 C25       -11.5553   -1.6493   54.9116 C.3     1  ZINC000981048968   -0.1300
     26 C26        -7.0561   -0.5983   51.2534 C.2     1  ZINC000981048968    0.0200
     27 O27        -6.1360    0.3708   51.2714 O.3     1  ZINC000981048968   -0.1700
     28 H28        -4.8193    2.6253   51.7219 H       1  ZINC000981048968    0.0800
     29 H29        -6.3431    3.5395   51.8248 H       1  ZINC000981048968    0.0900
     30 H30        -5.6300    2.8300   53.2933 H       1  ZINC000981048968    0.0900
     31 H31        -8.4072    1.8160   53.0617 H       1  ZINC000981048968    0.1600
     32 H32       -10.0061    0.2468   53.7387 H       1  ZINC000981048968    0.4000
     33 H33       -12.6502    0.5239   53.6833 H       1  ZINC000981048968    0.0700
     34 H34       -12.6031   -0.1001   52.0169 H       1  ZINC000981048968    0.0700
     35 H35       -14.8137   -0.5153   53.0604 H       1  ZINC000981048968    0.0700
     36 H36       -13.9767   -2.0458   52.7065 H       1  ZINC000981048968    0.0600
     37 H37       -14.0347   -0.6330   55.4116 H       1  ZINC000981048968    0.0700
     38 H38       -14.9739   -2.0811   54.9766 H       1  ZINC000981048968    0.0700
     39 H39       -12.3594   -2.1871   57.1476 H       1  ZINC000981048968    0.3500
     40 H40       -13.4344   -4.7467   57.1633 H       1  ZINC000981048968    0.1100
     41 H41       -12.2678   -4.6326   55.8237 H       1  ZINC000981048968    0.0600
     42 H42        -7.9874   -3.4974   60.1723 H       1  ZINC000981048968    0.1500
     43 H43        -8.2142   -0.9750   60.3193 H       1  ZINC000981048968    0.1200
     44 H44        -9.8922   -1.0818   59.5617 H       1  ZINC000981048968    0.1100
     45 H45       -10.6686   -2.5395   61.4869 H       1  ZINC000981048968    0.1000
     46 H46        -8.9905   -2.4327   62.2445 H       1  ZINC000981048968    0.1200
     47 H47       -10.7045   -2.2792   55.1715 H       1  ZINC000981048968    0.0700
     48 H48       -11.5415   -0.7487   55.5255 H       1  ZINC000981048968    0.0800
     49 H49        -6.9618   -1.5499   50.7515 H       1  ZINC000981048968    0.2100
@<TRIPOS>BOND
     1     1     2    1
     2     1    28    1
     3     1    29    1
     4     1    30    1
     5     2    27    1
     6     2     3    2
     7     3     4    1
     8     3    31    1
     9     4     5    1
    10     4    26    2
    11     5     6    2
    12     5     7   am
    13     7     8    1
    14     7    32    1
    15     8     9    1
    16     8    25    1
    17     8    10    1
    18    10    11    1
    19    10    33    1
    20    10    34    1
    21    11    12    1
    22    11    35    1
    23    11    36    1
    24    12    13    1
    25    12    37    1
    26    12    38    1
    27    13    14    1
    28    13    15    1
    29    13    25    1
    30    15    16    1
    31    15    39    1
    32    16    17    1
    33    16    40    1
    34    16    41    1
    35    17    24    1
    36    17    18    2
    37    18    19    1
    38    19    20    1
    39    20    21    1
    40    20    24    2
    41    21    23    1
    42    21    22    1
    43    21    42    1
    44    22    23    1
    45    22    43    1
    46    22    44    1
    47    23    45    1
    48    23    46    1
    49    25    47    1
    50    25    48    1
    51    26    27    1
    52    26    49    1
@<TRIPOS>SUBSTRUCTURE
     1 ZINC000981048968        1 TEMP              0 ****  ****    0 ROOT


##########                                Name:    ZINC000132775118
##########                DOCK_Rotatable_Bonds:                   5
##########                         Heavy_Atoms:                  27
##########                    Molecular_Weight:             376.499
##########                DOCK_Rotatable_Bonds:                   5
##########                       Formal_Charge:        -4.76837e-07
##########                     HBond_Acceptors:                   7
##########                        HBond_Donors:                   1
##########                         Heavy_Atoms:                  27
##########                          Grid_Score:          -34.543049
##########                     Grid_vdw_energy:          -33.449852
##########                      Grid_es_energy:           -1.093197
##########           Internal_energy_repulsive:           22.058889

@<TRIPOS>MOLECULE
ZINC000132775118
 59 62 1 0 0
SMALL
USER_CHARGES


@<TRIPOS>ATOM
      1 O1        -13.6058   -5.4277   56.3732 O.2     1  ZINC000132775118   -0.5200
      2 C2        -12.7151   -4.6246   56.1934 C.2     1  ZINC000132775118    0.5200
      3 C3        -11.7204   -4.3443   57.2903 C.3     1  ZINC000132775118    0.0300
      4 N4        -12.0079   -3.0340   57.8889 N.3     1  ZINC000132775118   -0.5100
      5 C5        -13.4444   -2.8844   58.1643 C.3     1  ZINC000132775118    0.0300
      6 C6        -13.7029   -1.6433   58.9690 C.2     1  ZINC000132775118    0.5300
      7 O7        -14.8394   -1.2250   59.0352 O.2     1  ZINC000132775118   -0.5500
      8 N8        -12.7391   -0.9758   59.6179 N.am    1  ZINC000132775118   -0.7200
      9 C9        -11.3394   -1.3699   59.5359 C.3     1  ZINC000132775118    0.1500
     10 H10       -10.8426   -0.7570   58.7838 H       1  ZINC000132775118    0.0800
     11 C11       -10.6251   -1.1889   60.8734 C.3     1  ZINC000132775118   -0.1300
     12 C12        -9.1487   -1.5600   60.7007 C.3     1  ZINC000132775118   -0.1200
     13 C13        -9.0259   -3.0101   60.2323 C.3     1  ZINC000132775118   -0.1200
     14 C14        -9.7688   -3.1968   58.9056 C.3     1  ZINC000132775118   -0.1200
     15 C15       -11.2396   -2.8401   59.1238 C.3     1  ZINC000132775118    0.0700
     16 H16       -11.6552   -3.4792   59.9027 H       1  ZINC000132775118    0.0600
     17 N17       -12.6114   -3.9869   55.0106 N.am    1  ZINC000132775118   -0.6200
     18 C18       -13.5770   -4.2452   53.9337 C.3     1  ZINC000132775118    0.1100
     19 C19       -14.1691   -2.9100   53.4716 C.3     1  ZINC000132775118   -0.1200
     20 C20       -13.0337   -1.9603   53.0832 C.3     1  ZINC000132775118   -0.1000
     21 C21       -13.6135   -0.6574   52.5957 C.2     1  ZINC000132775118    0.5300
     22 O22       -13.9489    0.1929   53.3928 O.2     1  ZINC000132775118   -0.5300
     23 N23       -13.7593   -0.4374   51.2741 N.am    1  ZINC000132775118   -0.6200
     24 C24       -13.4018   -1.3801   50.2040 C.3     1  ZINC000132775118    0.1000
     25 C25       -13.7192   -0.6900   48.8606 C.3     1  ZINC000132775118   -0.1300
     26 C26       -13.7082    0.8163   49.2325 C.3     1  ZINC000132775118   -0.1300
     27 C27       -14.3095    0.7858   50.6623 C.3     1  ZINC000132775118    0.1000
     28 C28       -12.1456   -1.6989   54.3019 C.3     1  ZINC000132775118   -0.1200
     29 C29       -11.5342   -3.0159   54.7755 C.3     1  ZINC000132775118    0.1200
     30 H30       -11.7953   -5.1175   58.0549 H       1  ZINC000132775118    0.0700
     31 H31       -10.7127   -4.3407   56.8747 H       1  ZINC000132775118    0.1200
     32 H32       -13.9863   -2.8200   57.2207 H       1  ZINC000132775118    0.1300
     33 H33       -13.7958   -3.7531   58.7210 H       1  ZINC000132775118    0.0700
     34 H34       -12.9807   -0.2071   60.1580 H       1  ZINC000132775118    0.4000
     35 H35       -10.7055   -0.1498   61.1926 H       1  ZINC000132775118    0.0800
     36 H36       -11.0799   -1.8387   61.6211 H       1  ZINC000132775118    0.0700
     37 H37        -8.6941   -0.9011   59.9608 H       1  ZINC000132775118    0.0700
     38 H38        -8.6322   -1.4424   61.6533 H       1  ZINC000132775118    0.0700
     39 H39        -7.9734   -3.2583   60.0956 H       1  ZINC000132775118    0.0700
     40 H40        -9.4570   -3.6709   60.9845 H       1  ZINC000132775118    0.0600
     41 H41        -9.3332   -2.5448   58.1484 H       1  ZINC000132775118    0.0800
     42 H42        -9.6890   -4.2356   58.5854 H       1  ZINC000132775118    0.0700
     43 H43       -13.0717   -4.7296   53.0982 H       1  ZINC000132775118    0.0800
     44 H44       -14.3742   -4.8896   54.3046 H       1  ZINC000132775118    0.0900
     45 H45       -14.8145   -3.0773   52.6093 H       1  ZINC000132775118    0.0800
     46 H46       -14.7504   -2.4699   54.2818 H       1  ZINC000132775118    0.0800
     47 H47       -12.4378   -2.4119   52.2901 H       1  ZINC000132775118    0.0900
     48 H48       -12.3389   -1.6159   50.2576 H       1  ZINC000132775118    0.0700
     49 H49       -13.9913   -2.2917   50.3008 H       1  ZINC000132775118    0.0700
     50 H50       -12.9483   -0.9105   48.1222 H       1  ZINC000132775118    0.0800
     51 H51       -14.7015   -0.9900   48.4956 H       1  ZINC000132775118    0.0800
     52 H52       -12.6916    1.2092   49.2410 H       1  ZINC000132775118    0.0800
     53 H53       -14.3418    1.3903   48.5563 H       1  ZINC000132775118    0.0900
     54 H54       -15.3974    0.7366   50.6152 H       1  ZINC000132775118    0.0700
     55 H55       -13.9927    1.6634   51.2257 H       1  ZINC000132775118    0.0800
     56 H56       -11.3507   -1.0041   54.0305 H       1  ZINC000132775118    0.0800
     57 H57       -12.7459   -1.2702   55.1043 H       1  ZINC000132775118    0.0800
     58 H58       -10.9814   -2.8504   55.7002 H       1  ZINC000132775118    0.1000
     59 H59       -10.8620   -3.4029   54.0098 H       1  ZINC000132775118    0.0700
@<TRIPOS>BOND
     1     1     2    2
     2     2     3    1
     3     2    17   am
     4     3     4    1
     5     3    30    1
     6     3    31    1
     7     4    15    1
     8     4     5    1
     9     5     6    1
    10     5    32    1
    11     5    33    1
    12     6     7    2
    13     6     8   am
    14     8     9    1
    15     8    34    1
    16     9    10    1
    17     9    15    1
    18     9    11    1
    19    11    12    1
    20    11    35    1
    21    11    36    1
    22    12    13    1
    23    12    37    1
    24    12    38    1
    25    13    14    1
    26    13    39    1
    27    13    40    1
    28    14    15    1
    29    14    41    1
    30    14    42    1
    31    15    16    1
    32    17    29    1
    33    17    18    1
    34    18    19    1
    35    18    43    1
    36    18    44    1
    37    19    20    1
    38    19    45    1
    39    19    46    1
    40    20    21    1
    41    20    28    1
    42    20    47    1
    43    21    22    2
    44    21    23   am
    45    23    27    1
    46    23    24    1
    47    24    25    1
    48    24    48    1
    49    24    49    1
    50    25    26    1
    51    25    50    1
    52    25    51    1
    53    26    27    1
    54    26    52    1
    55    26    53    1
    56    27    54    1
    57    27    55    1
    58    28    29    1
    59    28    56    1
    60    28    57    1
    61    29    58    1
    62    29    59    1
@<TRIPOS>SUBSTRUCTURE
     1 ZINC000132775118        1 TEMP              0 ****  ****    0 ROOT


##########                                Name:    ZINC001109404798
##########                DOCK_Rotatable_Bonds:                   7
##########                         Heavy_Atoms:                  25
##########                    Molecular_Weight:              360.48
##########                DOCK_Rotatable_Bonds:                   7
##########                       Formal_Charge:           0.0100002
##########                     HBond_Acceptors:                   7
##########                        HBond_Donors:                   1
##########                         Heavy_Atoms:                  25
##########                          Grid_Score:          -34.542686
##########                     Grid_vdw_energy:          -33.897762
##########                      Grid_es_energy:           -0.644924
##########           Internal_energy_repulsive:           28.779398

@<TRIPOS>MOLECULE
ZINC001109404798
 49 52 1 0 0
SMALL
USER_CHARGES


@<TRIPOS>ATOM
      1 C1        -14.8901   -0.7685   50.2308 C.3     1  ZINC001109404798   -0.0600
      2 C2        -14.3122   -1.6482   51.3094 C.2     1  ZINC001109404798    0.1700
      3 N3        -14.8732   -2.7001   51.8267 N.2     1  ZINC001109404798   -0.3900
      4 O4        -14.1520   -3.1882   52.6710 O.3     1  ZINC001109404798    0.1000
      5 C5        -13.0283   -2.4724   52.7758 C.2     1  ZINC001109404798    0.1900
      6 C6        -11.8754   -2.7430   53.7077 C.3     1  ZINC001109404798    0.1600
      7 H7        -11.3716   -1.8058   53.9442 H       1  ZINC001109404798    0.1000
      8 C8        -10.8874   -3.6969   53.0330 C.3     1  ZINC001109404798   -0.1500
      9 N9        -12.3788   -3.3543   54.9450 N.3     1  ZINC001109404798   -0.4800
     10 C10       -13.4433   -2.4957   55.5769 C.3     1  ZINC001109404798    0.0400
     11 H11       -14.3518   -2.3561   54.9910 H       1  ZINC001109404798    0.1100
     12 C12       -12.6359   -1.1990   55.8860 C.3     1  ZINC001109404798   -0.1600
     13 C13       -11.2148   -1.7248   56.2045 C.3     1  ZINC001109404798   -0.1600
     14 C14       -11.3534   -3.2690   56.0454 C.3     1  ZINC001109404798    0.0400
     15 H15       -10.4230   -3.8096   55.8717 H       1  ZINC001109404798    0.1200
     16 C16       -12.1788   -3.7305   57.2842 C.3     1  ZINC001109404798    0.1500
     17 H17       -12.1782   -4.8176   57.3623 H       1  ZINC001109404798    0.1000
     18 N18       -11.6506   -3.1266   58.5099 N.am    1  ZINC001109404798   -0.7200
     19 C19       -10.5209   -3.6078   59.0655 C.2     1  ZINC001109404798    0.5100
     20 O20        -9.9408   -4.5397   58.5499 O.2     1  ZINC001109404798   -0.5300
     21 C21        -9.9785   -2.9878   60.3275 C.3     1  ZINC001109404798   -0.1300
     22 C22       -10.3855   -1.5141   60.3875 C.3     1  ZINC001109404798   -0.0400
     23 C23        -9.9404   -0.9231   61.7003 C.2     1  ZINC001109404798   -0.1000
     24 C24        -8.8151   -1.2974   62.3109 C.2     1  ZINC001109404798   -0.2100
     25 S25        -8.6290   -0.3953   63.8093 S.3     1  ZINC001109404798    0.1000
     26 C26       -10.1342    0.4649   63.5134 C.2     1  ZINC001109404798   -0.2100
     27 C27       -10.6653    0.0537   62.3610 C.2     1  ZINC001109404798   -0.1300
     28 C28       -13.6302   -3.2134   56.9476 C.3     1  ZINC001109404798   -0.1100
     29 N29       -13.1185   -1.4923   51.9091 N.2     1  ZINC001109404798   -0.4800
     30 H30       -14.5918   -1.1482   49.2536 H       1  ZINC001109404798    0.0900
     31 H31       -15.9776   -0.7700   50.3047 H       1  ZINC001109404798    0.0900
     32 H32       -14.5189    0.2488   50.3542 H       1  ZINC001109404798    0.0900
     33 H33       -10.5138   -3.2433   52.1149 H       1  ZINC001109404798    0.0700
     34 H34       -10.0534   -3.8925   53.7070 H       1  ZINC001109404798    0.0800
     35 H35       -11.3911   -4.6341   52.7964 H       1  ZINC001109404798    0.0800
     36 H36       -12.6161   -0.5427   55.0159 H       1  ZINC001109404798    0.0700
     37 H37       -13.0560   -0.6819   56.7486 H       1  ZINC001109404798    0.0800
     38 H38       -10.4907   -1.3291   55.4924 H       1  ZINC001109404798    0.0700
     39 H39       -10.9305   -1.4682   57.2250 H       1  ZINC001109404798    0.0800
     40 H40       -12.1139   -2.3805   58.9217 H       1  ZINC001109404798    0.4000
     41 H41       -10.3833   -3.5122   61.1930 H       1  ZINC001109404798    0.0900
     42 H42        -8.8912   -3.0648   60.3318 H       1  ZINC001109404798    0.1000
     43 H43        -9.9139   -0.9733   59.5670 H       1  ZINC001109404798    0.0800
     44 H44       -11.4690   -1.4327   60.3011 H       1  ZINC001109404798    0.0800
     45 H45        -8.1242   -2.0410   61.9420 H       1  ZINC001109404798    0.1600
     46 H46       -10.5608    1.2148   64.1631 H       1  ZINC001109404798    0.1600
     47 H47       -11.5947    0.4472   61.9765 H       1  ZINC001109404798    0.1400
     48 H48       -13.9649   -2.4953   57.6963 H       1  ZINC001109404798    0.0800
     49 H49       -14.3278   -4.0478   56.8759 H       1  ZINC001109404798    0.0900
@<TRIPOS>BOND
     1     1     2    1
     2     1    30    1
     3     1    31    1
     4     1    32    1
     5     2    29    1
     6     2     3    2
     7     3     4    1
     8     4     5    1
     9     5     6    1
    10     5    29    2
    11     6     7    1
    12     6     8    1
    13     6     9    1
    14     8    33    1
    15     8    34    1
    16     8    35    1
    17     9    14    1
    18     9    10    1
    19    10    11    1
    20    10    28    1
    21    10    12    1
    22    12    13    1
    23    12    36    1
    24    12    37    1
    25    13    14    1
    26    13    38    1
    27    13    39    1
    28    14    15    1
    29    14    16    1
    30    16    17    1
    31    16    18    1
    32    16    28    1
    33    18    19   am
    34    18    40    1
    35    19    20    2
    36    19    21    1
    37    21    22    1
    38    21    41    1
    39    21    42    1
    40    22    23    1
    41    22    43    1
    42    22    44    1
    43    23    27    1
    44    23    24    2
    45    24    25    1
    46    24    45    1
    47    25    26    1
    48    26    27    2
    49    26    46    1
    50    27    47    1
    51    28    48    1
    52    28    49    1
@<TRIPOS>SUBSTRUCTURE
     1 ZINC001109404798        1 TEMP              0 ****  ****    0 ROOT


##########                                Name:    ZINC000124554441
##########                DOCK_Rotatable_Bonds:                   9
##########                         Heavy_Atoms:                  26
##########                    Molecular_Weight:             375.898
##########                DOCK_Rotatable_Bonds:                   9
##########                       Formal_Charge:         -0.00999991
##########                     HBond_Acceptors:                   6
##########                        HBond_Donors:                   1
##########                         Heavy_Atoms:                  26
##########                          Grid_Score:          -34.497753
##########                     Grid_vdw_energy:          -34.829617
##########                      Grid_es_energy:            0.331864
##########           Internal_energy_repulsive:           12.957835

@<TRIPOS>MOLECULE
ZINC000124554441
 52 53 1 0 0
SMALL
USER_CHARGES


@<TRIPOS>ATOM
      1 C1         -5.2650    1.3499   50.6250 C.3     1  ZINC000124554441   -0.1500
      2 C2         -6.3669    2.2432   51.1984 C.3     1  ZINC000124554441   -0.1300
      3 C3         -7.4514    1.3711   51.8341 C.3     1  ZINC000124554441   -0.1200
      4 C4         -8.5274    2.2655   52.4531 C.3     1  ZINC000124554441   -0.1200
      5 C5         -9.7090    1.4045   52.9038 C.3     1  ZINC000124554441   -0.1300
      6 C6         -9.2428    0.4216   53.9796 C.3     1  ZINC000124554441    0.1200
      7 N7        -10.3995   -0.2996   54.5165 N.am    1  ZINC000124554441   -0.7300
      8 C8        -10.8231   -1.4323   53.9214 C.2     1  ZINC000124554441    0.5200
      9 O9        -10.2476   -1.8537   52.9405 O.2     1  ZINC000124554441   -0.5300
     10 C10       -12.0118   -2.1751   54.4748 C.3     1  ZINC000124554441   -0.1200
     11 H11       -12.6903   -1.4698   54.9546 H       1  ZINC000124554441    0.1000
     12 C12       -12.7414   -2.8919   53.3364 C.3     1  ZINC000124554441   -0.1000
     13 C13       -13.9675   -3.6196   53.8923 C.3     1  ZINC000124554441   -0.1400
     14 C14       -13.5145   -4.6688   54.9126 C.3     1  ZINC000124554441    0.0900
     15 N15       -12.6894   -4.0097   55.9341 N.am    1  ZINC000124554441   -0.6000
     16 C16       -12.9840   -4.1384   57.2429 C.2     1  ZINC000124554441    0.5600
     17 O17       -13.9401   -4.8048   57.5880 O.2     1  ZINC000124554441   -0.5200
     18 C18       -12.1437   -3.4687   58.2595 C.ar    1  ZINC000124554441   -0.0900
     19 C19       -12.6142   -2.3274   58.9119 C.ar    1  ZINC000124554441   -0.0900
     20 C20       -11.8328   -1.7029   59.8586 C.ar    1  ZINC000124554441   -0.0600
     21 C21       -10.5687   -2.2107   60.1664 C.ar    1  ZINC000124554441    0.0100
     22 C22        -9.7561   -1.5616   61.1507 C.1     1  ZINC000124554441    0.2400
     23 N23        -9.1115   -1.0465   61.9317 N.1     1  ZINC000124554441   -0.3800
     24 C24       -10.0971   -3.3536   59.5134 C.ar    1  ZINC000124554441    0.0000
     25 Cl25       -8.5263   -3.9862   59.8954 Cl      1  ZINC000124554441   -0.0400
     26 C26       -10.8829   -3.9813   58.5703 C.ar    1  ZINC000124554441   -0.0600
     27 C27       -11.5367   -3.2073   55.5022 C.3     1  ZINC000124554441    0.1200
     28 H28        -4.8282    0.7526   51.4254 H       1  ZINC000124554441    0.0500
     29 H29        -5.6896    0.6893   49.8690 H       1  ZINC000124554441    0.0500
     30 H30        -4.4925    1.9712   50.1721 H       1  ZINC000124554441    0.0500
     31 H31        -5.9424    2.9038   51.9545 H       1  ZINC000124554441    0.0600
     32 H32        -6.8037    2.8405   50.3980 H       1  ZINC000124554441    0.0600
     33 H33        -7.9014    0.7367   51.0705 H       1  ZINC000124554441    0.0600
     34 H34        -7.0074    0.7470   52.6097 H       1  ZINC000124554441    0.0600
     35 H35        -8.1122    2.7915   53.3129 H       1  ZINC000124554441    0.0700
     36 H36        -8.8671    2.9903   51.7133 H       1  ZINC000124554441    0.0700
     37 H37       -10.4908    2.0453   53.3116 H       1  ZINC000124554441    0.0700
     38 H38       -10.1012    0.8506   52.0510 H       1  ZINC000124554441    0.0700
     39 H39        -8.5419   -0.2898   53.5426 H       1  ZINC000124554441    0.0700
     40 H40        -8.7509    0.9691   54.7835 H       1  ZINC000124554441    0.0700
     41 H41       -10.8605    0.0381   55.3003 H       1  ZINC000124554441    0.4000
     42 H42       -13.0590   -2.1617   52.5920 H       1  ZINC000124554441    0.0800
     43 H43       -12.0697   -3.6142   52.8725 H       1  ZINC000124554441    0.0800
     44 H44       -14.6278   -2.9011   54.3780 H       1  ZINC000124554441    0.0700
     45 H45       -14.4997   -4.1106   53.0776 H       1  ZINC000124554441    0.0900
     46 H46       -14.3873   -5.1209   55.3838 H       1  ZINC000124554441    0.1000
     47 H47       -12.9284   -5.4381   54.4099 H       1  ZINC000124554441    0.0800
     48 H48       -13.5913   -1.9339   58.6737 H       1  ZINC000124554441    0.1500
     49 H49       -12.1975   -0.8202   60.3628 H       1  ZINC000124554441    0.1500
     50 H50       -10.5194   -4.8640   58.0654 H       1  ZINC000124554441    0.1500
     51 H51       -10.7890   -3.8570   55.0475 H       1  ZINC000124554441    0.0800
     52 H52       -11.1047   -2.6957   56.3624 H       1  ZINC000124554441    0.1000
@<TRIPOS>BOND
     1     1     2    1
     2     1    28    1
     3     1    29    1
     4     1    30    1
     5     2     3    1
     6     2    31    1
     7     2    32    1
     8     3     4    1
     9     3    33    1
    10     3    34    1
    11     4     5    1
    12     4    35    1
    13     4    36    1
    14     5     6    1
    15     5    37    1
    16     5    38    1
    17     6     7    1
    18     6    39    1
    19     6    40    1
    20     7     8   am
    21     7    41    1
    22     8     9    2
    23     8    10    1
    24    10    11    1
    25    10    27    1
    26    10    12    1
    27    12    13    1
    28    12    42    1
    29    12    43    1
    30    13    14    1
    31    13    44    1
    32    13    45    1
    33    14    15    1
    34    14    46    1
    35    14    47    1
    36    15    16   am
    37    15    27    1
    38    16    17    2
    39    16    18    1
    40    18    26   ar
    41    18    19   ar
    42    19    20   ar
    43    19    48    1
    44    20    21   ar
    45    20    49    1
    46    21    22    1
    47    21    24   ar
    48    22    23    3
    49    24    25    1
    50    24    26   ar
    51    26    50    1
    52    27    51    1
    53    27    52    1
@<TRIPOS>SUBSTRUCTURE
     1 ZINC000124554441        1 TEMP              0 ****  ****    0 ROOT


##########                                Name:    ZINC000464139057
##########                DOCK_Rotatable_Bonds:                   9
##########                         Heavy_Atoms:                  30
##########                    Molecular_Weight:              413.56
##########                DOCK_Rotatable_Bonds:                   9
##########                       Formal_Charge:         2.38419e-07
##########                     HBond_Acceptors:                   6
##########                        HBond_Donors:                   2
##########                         Heavy_Atoms:                  30
##########                          Grid_Score:          -34.466438
##########                     Grid_vdw_energy:          -33.501980
##########                      Grid_es_energy:           -0.964459
##########           Internal_energy_repulsive:           12.630143

@<TRIPOS>MOLECULE
ZINC000464139057
 65 67 1 0 0
SMALL
USER_CHARGES


@<TRIPOS>ATOM
      1 C1        -11.9482   -4.1712   53.0672 C.3     1  ZINC000464139057   -0.1800
      2 C2        -13.0434   -3.1092   53.1829 C.3     1  ZINC000464139057    0.0700
      3 H3        -13.7300   -3.2009   52.3412 H       1  ZINC000464139057    0.1200
      4 C4        -13.8120   -3.3071   54.4945 C.3     1  ZINC000464139057    0.0800
      5 N5        -12.9084   -2.9960   55.6134 N.am    1  ZINC000464139057   -0.6100
      6 C6        -12.7577   -3.8532   56.6424 C.2     1  ZINC000464139057    0.5600
      7 O7        -13.3728   -4.9014   56.6554 O.2     1  ZINC000464139057   -0.5300
      8 C8        -11.8439   -3.5186   57.7555 C.ar    1  ZINC000464139057   -0.1200
      9 C9        -12.2340   -2.5991   58.7304 C.ar    1  ZINC000464139057   -0.0900
     10 C10       -11.3768   -2.2916   59.7667 C.ar    1  ZINC000464139057   -0.1000
     11 C11       -10.1325   -2.8921   59.8405 C.ar    1  ZINC000464139057   -0.0900
     12 C12        -9.2011   -2.5510   60.9751 C.3     1  ZINC000464139057    0.1800
     13 N13        -9.3433   -1.1329   61.3140 N.am    1  ZINC000464139057   -0.7400
     14 C14        -8.9854   -0.6932   62.5368 C.2     1  ZINC000464139057    0.7000
     15 O15        -8.5432   -1.4732   63.3579 O.2     1  ZINC000464139057   -0.5900
     16 N16        -9.1177    0.6111   62.8492 N.am    1  ZINC000464139057   -0.7500
     17 C17        -8.7304    1.0888   64.1789 C.3     1  ZINC000464139057    0.1400
     18 C18        -9.5471    2.3336   64.5315 C.3     1  ZINC000464139057   -0.0900
     19 C19       -11.0142    1.9892   64.5292 C.2     1  ZINC000464139057   -0.1200
     20 C20       -11.5813    1.5786   65.6189 C.2     1  ZINC000464139057   -0.1500
     21 C21       -13.0541    1.2294   65.6304 C.3     1  ZINC000464139057   -0.0900
     22 C22       -13.8640    2.5237   65.5286 C.3     1  ZINC000464139057   -0.1100
     23 C23       -14.0457    2.9319   64.0774 C.3     1  ZINC000464139057   -0.1200
     24 C24       -12.7515    3.3301   63.3903 C.3     1  ZINC000464139057   -0.1100
     25 C25       -11.8186    2.1309   63.2547 C.3     1  ZINC000464139057   -0.0800
     26 C26        -9.7397   -3.8047   58.8776 C.ar    1  ZINC000464139057   -0.1000
     27 C27       -10.5895   -4.1251   57.8391 C.ar    1  ZINC000464139057   -0.0700
     28 C28       -12.1741   -1.7213   55.5755 C.3     1  ZINC000464139057    0.0700
     29 C29       -11.4854   -1.6006   54.2113 C.3     1  ZINC000464139057    0.0700
     30 H30       -10.6994   -2.3517   54.1326 H       1  ZINC000464139057    0.0700
     31 C31       -10.8746   -0.2050   54.0689 C.3     1  ZINC000464139057   -0.1500
     32 O32       -12.4501   -1.8085   53.1757 O.3     1  ZINC000464139057   -0.3700
     33 H33       -11.2621   -4.0789   53.9091 H       1  ZINC000464139057    0.0600
     34 H34       -12.4011   -5.1626   53.0745 H       1  ZINC000464139057    0.0700
     35 H35       -11.4010   -4.0287   52.1353 H       1  ZINC000464139057    0.0700
     36 H36       -14.6724   -2.6383   54.5203 H       1  ZINC000464139057    0.0800
     37 H37       -14.1479   -4.3413   54.5706 H       1  ZINC000464139057    0.1000
     38 H38       -13.2047   -2.1291   58.6735 H       1  ZINC000464139057    0.1300
     39 H39       -11.6775   -1.5803   60.5217 H       1  ZINC000464139057    0.1300
     40 H40        -9.4499   -3.1592   61.8448 H       1  ZINC000464139057    0.0800
     41 H41        -8.1729   -2.7513   60.6739 H       1  ZINC000464139057    0.0800
     42 H42        -9.6949   -0.5104   60.6585 H       1  ZINC000464139057    0.4000
     43 H43        -9.4694    1.2336   62.1937 H       1  ZINC000464139057    0.4000
     44 H44        -8.9216    0.3083   64.9154 H       1  ZINC000464139057    0.0700
     45 H45        -7.6693    1.3380   64.1806 H       1  ZINC000464139057    0.0700
     46 H46        -9.2590    2.6889   65.5210 H       1  ZINC000464139057    0.0700
     47 H47        -9.3560    3.1142   63.7952 H       1  ZINC000464139057    0.0800
     48 H48       -11.0000    1.4847   66.5244 H       1  ZINC000464139057    0.1100
     49 H49       -13.2841    0.5860   64.7811 H       1  ZINC000464139057    0.0700
     50 H50       -13.3010    0.7153   66.5593 H       1  ZINC000464139057    0.0700
     51 H51       -14.8426    2.3714   65.9838 H       1  ZINC000464139057    0.0600
     52 H52       -13.3406    3.3174   66.0618 H       1  ZINC000464139057    0.0600
     53 H53       -14.4868    2.0969   63.5330 H       1  ZINC000464139057    0.0600
     54 H54       -14.7359    3.7746   64.0361 H       1  ZINC000464139057    0.0600
     55 H55       -12.9776    3.7234   62.3992 H       1  ZINC000464139057    0.0600
     56 H56       -12.2564    4.1033   63.9779 H       1  ZINC000464139057    0.0600
     57 H57       -11.1442    2.2853   62.4124 H       1  ZINC000464139057    0.0700
     58 H58       -12.4060    1.2266   63.0954 H       1  ZINC000464139057    0.0700
     59 H59        -8.7672   -4.2702   58.9412 H       1  ZINC000464139057    0.1300
     60 H60       -10.2819   -4.8378   57.0882 H       1  ZINC000464139057    0.1300
     61 H61       -12.8696   -0.8929   55.7102 H       1  ZINC000464139057    0.0800
     62 H62       -11.4254   -1.7053   56.3675 H       1  ZINC000464139057    0.1000
     63 H63       -10.1424   -0.0463   54.8605 H       1  ZINC000464139057    0.0800
     64 H64       -10.3851   -0.1199   53.0988 H       1  ZINC000464139057    0.0700
     65 H65       -11.6613    0.5455   54.1460 H       1  ZINC000464139057    0.0700
@<TRIPOS>BOND
     1     1     2    1
     2     1    33    1
     3     1    34    1
     4     1    35    1
     5     2     3    1
     6     2    32    1
     7     2     4    1
     8     4     5    1
     9     4    36    1
    10     4    37    1
    11     5     6   am
    12     5    28    1
    13     6     7    2
    14     6     8    1
    15     8    27   ar
    16     8     9   ar
    17     9    10   ar
    18     9    38    1
    19    10    11   ar
    20    10    39    1
    21    11    12    1
    22    11    26   ar
    23    12    13    1
    24    12    40    1
    25    12    41    1
    26    13    14   am
    27    13    42    1
    28    14    15    2
    29    14    16   am
    30    16    17    1
    31    16    43    1
    32    17    18    1
    33    17    44    1
    34    17    45    1
    35    18    19    1
    36    18    46    1
    37    18    47    1
    38    19    25    1
    39    19    20    2
    40    20    21    1
    41    20    48    1
    42    21    22    1
    43    21    49    1
    44    21    50    1
    45    22    23    1
    46    22    51    1
    47    22    52    1
    48    23    24    1
    49    23    53    1
    50    23    54    1
    51    24    25    1
    52    24    55    1
    53    24    56    1
    54    25    57    1
    55    25    58    1
    56    26    27   ar
    57    26    59    1
    58    27    60    1
    59    28    29    1
    60    28    61    1
    61    28    62    1
    62    29    30    1
    63    29    31    1
    64    29    32    1
    65    31    63    1
    66    31    64    1
    67    31    65    1
@<TRIPOS>SUBSTRUCTURE
     1 ZINC000464139057        1 TEMP              0 ****  ****    0 ROOT


##########                                Name:    ZINC001362451754
##########                DOCK_Rotatable_Bonds:                   6
##########                         Heavy_Atoms:                  22
##########                    Molecular_Weight:             339.846
##########                DOCK_Rotatable_Bonds:                   6
##########                       Formal_Charge:         -0.00999987
##########                     HBond_Acceptors:                   7
##########                        HBond_Donors:                   1
##########                         Heavy_Atoms:                  22
##########                          Grid_Score:          -34.432621
##########                     Grid_vdw_energy:          -33.352921
##########                      Grid_es_energy:           -1.079702
##########           Internal_energy_repulsive:           15.005903

@<TRIPOS>MOLECULE
ZINC001362451754
 40 42 1 0 0
SMALL
USER_CHARGES


@<TRIPOS>ATOM
      1 C1         -8.8467   -2.8929   60.2955 C.3     1  ZINC001362451754   -0.1700
      2 C2        -10.3709   -2.8347   60.4158 C.3     1  ZINC001362451754    0.1400
      3 H3        -10.7174   -3.5831   61.1285 H       1  ZINC001362451754    0.0800
      4 C4        -10.8077   -1.4284   60.8774 C.3     1  ZINC001362451754   -0.1000
      5 H5        -11.6723   -1.4907   61.5383 H       1  ZINC001362451754    0.1000
      6 C6         -9.6506   -0.7004   61.5645 C.3     1  ZINC001362451754    0.0900
      7 O7        -10.1160    0.5440   62.0905 O.3     1  ZINC001362451754   -0.5700
      8 C8        -11.1841   -0.7269   59.5457 C.3     1  ZINC001362451754   -0.1200
      9 C9        -11.7948   -1.8961   58.7376 C.3     1  ZINC001362451754    0.0900
     10 N10       -10.9856   -3.0733   59.1017 N.am    1  ZINC001362451754   -0.6100
     11 C11       -10.8303   -4.1823   58.3516 C.2     1  ZINC001362451754    0.6100
     12 O12       -10.1352   -5.0966   58.7540 O.2     1  ZINC001362451754   -0.5200
     13 C13       -11.4985   -4.2869   57.0511 C.2     1  ZINC001362451754   -0.2500
     14 C14       -12.6698   -4.9489   56.8127 C.2     1  ZINC001362451754   -0.0500
     15 C15       -13.0685   -4.8925   55.4983 C.2     1  ZINC001362451754   -0.1100
     16 C16       -12.2588   -4.1998   54.6888 C.2     1  ZINC001362451754   -0.2500
     17 C17       -12.4936   -3.9993   53.2138 C.3     1  ZINC001362451754    0.2100
     18 N18       -11.8027   -2.7861   52.7698 N.pl3   1  ZINC001362451754   -0.3700
     19 C19       -12.3426   -1.5514   52.6818 C.2     1  ZINC001362451754    0.0700
     20 C20       -11.3792   -0.7111   52.2362 C.2     1  ZINC001362451754   -0.1800
     21 Cl21      -11.5597    0.9925   51.9553 Cl      1  ZINC001362451754   -0.0400
     22 C22       -10.2141   -1.4597   52.0363 C.2     1  ZINC001362451754    0.0700
     23 N23       -10.4670   -2.7030   52.3558 N.2     1  ZINC001362451754   -0.2700
     24 S24       -10.9209   -3.5809   55.5478 S.3     1  ZINC001362451754    0.2300
     25 H25        -8.5103   -2.1459   59.5766 H       1  ZINC001362451754    0.0600
     26 H26        -8.3976   -2.6897   61.2677 H       1  ZINC001362451754    0.0700
     27 H27        -8.5465   -3.8844   59.9567 H       1  ZINC001362451754    0.0700
     28 H28        -9.2647   -1.3167   62.3766 H       1  ZINC001362451754    0.0500
     29 H29        -8.8571   -0.5150   60.8405 H       1  ZINC001362451754    0.0500
     30 H30        -9.8882    1.3106   61.5468 H       1  ZINC001362451754    0.3800
     31 H31       -11.9191    0.0605   59.7130 H       1  ZINC001362451754    0.0900
     32 H32       -10.2984   -0.3323   59.0479 H       1  ZINC001362451754    0.0800
     33 H33       -11.7186   -1.6994   57.6682 H       1  ZINC001362451754    0.0800
     34 H34       -12.8358   -2.0483   59.0229 H       1  ZINC001362451754    0.0800
     35 H35       -13.2249   -5.4686   57.5797 H       1  ZINC001362451754    0.1600
     36 H36       -13.9711   -5.3692   55.1455 H       1  ZINC001362451754    0.1500
     37 H37       -12.1083   -4.8583   52.6644 H       1  ZINC001362451754    0.1100
     38 H38       -13.5625   -3.8978   53.0264 H       1  ZINC001362451754    0.1100
     39 H39       -13.3596   -1.2822   52.9255 H       1  ZINC001362451754    0.1800
     40 H40        -9.2691   -1.0772   51.6795 H       1  ZINC001362451754    0.1900
@<TRIPOS>BOND
     1     1     2    1
     2     1    25    1
     3     1    26    1
     4     1    27    1
     5     2     3    1
     6     2    10    1
     7     2     4    1
     8     4     5    1
     9     4     6    1
    10     4     8    1
    11     6     7    1
    12     6    28    1
    13     6    29    1
    14     7    30    1
    15     8     9    1
    16     8    31    1
    17     8    32    1
    18     9    10    1
    19     9    33    1
    20     9    34    1
    21    10    11   am
    22    11    12    2
    23    11    13    1
    24    13    24    1
    25    13    14    2
    26    14    15    1
    27    14    35    1
    28    15    16    2
    29    15    36    1
    30    16    17    1
    31    16    24    1
    32    17    18    1
    33    17    37    1
    34    17    38    1
    35    18    23    1
    36    18    19    1
    37    19    20    2
    38    19    39    1
    39    20    21    1
    40    20    22    1
    41    22    23    2
    42    22    40    1
@<TRIPOS>SUBSTRUCTURE
     1 ZINC001362451754        1 TEMP              0 ****  ****    0 ROOT


##########                                Name:    ZINC000546115054
##########                DOCK_Rotatable_Bonds:                  10
##########                         Heavy_Atoms:                  26
##########                    Molecular_Weight:             363.457
##########                DOCK_Rotatable_Bonds:                  10
##########                       Formal_Charge:        -4.39584e-07
##########                     HBond_Acceptors:                   7
##########                        HBond_Donors:                   2
##########                         Heavy_Atoms:                  26
##########                          Grid_Score:          -34.411671
##########                     Grid_vdw_energy:          -34.026829
##########                      Grid_es_energy:           -0.384841
##########           Internal_energy_repulsive:           16.456316

@<TRIPOS>MOLECULE
ZINC000546115054
 55 56 1 0 0
SMALL
USER_CHARGES


@<TRIPOS>ATOM
      1 C1        -13.8578   -5.8088   56.6420 C.3     1  ZINC000546115054   -0.1500
      2 C2        -13.6608   -5.0083   55.3530 C.3     1  ZINC000546115054    0.0600
      3 O3        -12.5106   -4.1704   55.4837 O.3     1  ZINC000546115054   -0.3700
      4 C4        -12.2831   -3.3162   54.3609 C.3     1  ZINC000546115054    0.0500
      5 H5        -13.2346   -2.9203   54.0059 H       1  ZINC000546115054    0.0700
      6 C6        -11.6103   -4.1128   53.2400 C.3     1  ZINC000546115054    0.0400
      7 O7        -11.3315   -3.2434   52.1407 O.3     1  ZINC000546115054   -0.3700
      8 C8        -10.4430   -2.1697   52.4567 C.3     1  ZINC000546115054    0.0600
      9 C9        -11.0688   -1.2951   53.5462 C.3     1  ZINC000546115054   -0.1600
     10 C10       -11.3695   -2.1587   54.7752 C.3     1  ZINC000546115054    0.1700
     11 H11       -10.4381   -2.5572   55.1776 H       1  ZINC000546115054    0.1000
     12 N12       -12.0355   -1.3447   55.7951 N.am    1  ZINC000546115054   -0.7300
     13 C13       -11.5933   -1.3651   57.0681 C.2     1  ZINC000546115054    0.7200
     14 O14       -10.6426   -2.0602   57.3703 O.2     1  ZINC000546115054   -0.5900
     15 N15       -12.2050   -0.6150   58.0060 N.am    1  ZINC000546115054   -0.7200
     16 C16       -11.7254   -0.6386   59.3901 C.3     1  ZINC000546115054    0.1600
     17 H17       -11.3881   -1.6444   59.6406 H       1  ZINC000546115054    0.1200
     18 C18       -10.5615    0.3426   59.5434 C.3     1  ZINC000546115054   -0.1000
     19 C19        -9.9042    0.1369   60.8837 C.ar    1  ZINC000546115054   -0.0800
     20 C20        -9.2727   -1.0596   61.1676 C.ar    1  ZINC000546115054   -0.1100
     21 C21        -8.6698   -1.2482   62.3971 C.ar    1  ZINC000546115054   -0.1200
     22 C22        -8.6981   -0.2404   63.3427 C.ar    1  ZINC000546115054   -0.1200
     23 C23        -9.3288    0.9564   63.0586 C.ar    1  ZINC000546115054   -0.1200
     24 C24        -9.9279    1.1468   61.8275 C.ar    1  ZINC000546115054   -0.1100
     25 C25       -12.8448   -0.2387   60.3165 C.2     1  ZINC000546115054    0.5000
     26 O26       -12.9777    0.9221   60.6413 O.2     1  ZINC000546115054   -0.5200
     27 N27       -13.6983   -1.1712   60.7839 N.am    1  ZINC000546115054   -0.6200
     28 C28       -14.7875   -0.7823   61.6830 C.3     1  ZINC000546115054    0.0800
     29 C29       -13.5367   -2.5738   60.3929 C.3     1  ZINC000546115054    0.0700
     30 H30       -14.7352   -6.4479   56.5423 H       1  ZINC000546115054    0.0700
     31 H31       -12.9779   -6.4255   56.8246 H       1  ZINC000546115054    0.0600
     32 H32       -14.0007   -5.1232   57.4772 H       1  ZINC000546115054    0.0600
     33 H33       -13.5179   -5.6940   54.5177 H       1  ZINC000546115054    0.0500
     34 H34       -14.5408   -4.3915   55.1703 H       1  ZINC000546115054    0.0500
     35 H35       -10.6791   -4.5432   53.6083 H       1  ZINC000546115054    0.0600
     36 H36       -12.2755   -4.9117   52.9120 H       1  ZINC000546115054    0.1000
     37 H37        -9.4964   -2.5747   52.8148 H       1  ZINC000546115054    0.0600
     38 H38       -10.2671   -1.5689   51.5646 H       1  ZINC000546115054    0.1000
     39 H39       -10.3739   -0.5013   53.8200 H       1  ZINC000546115054    0.0900
     40 H40       -11.9952   -0.8574   53.1744 H       1  ZINC000546115054    0.0800
     41 H41       -12.7947   -0.7912   55.5542 H       1  ZINC000546115054    0.3900
     42 H42       -12.9626   -0.0596   57.7646 H       1  ZINC000546115054    0.4000
     43 H43        -9.8333    0.1689   58.7511 H       1  ZINC000546115054    0.0900
     44 H44       -10.9359    1.3639   59.4752 H       1  ZINC000546115054    0.1100
     45 H45        -9.2506   -1.8470   60.4287 H       1  ZINC000546115054    0.1200
     46 H46        -8.1770   -2.1833   62.6191 H       1  ZINC000546115054    0.1200
     47 H47        -8.2277   -0.3881   64.3036 H       1  ZINC000546115054    0.1200
     48 H48        -9.3511    1.7437   63.7976 H       1  ZINC000546115054    0.1200
     49 H49       -10.4208    2.0818   61.6055 H       1  ZINC000546115054    0.1200
     50 H50       -15.6709   -0.5306   61.0960 H       1  ZINC000546115054    0.0600
     51 H51       -15.0198   -1.6109   62.3521 H       1  ZINC000546115054    0.0700
     52 H52       -14.4824    0.0841   62.2699 H       1  ZINC000546115054    0.0800
     53 H53       -12.8834   -3.0769   61.1059 H       1  ZINC000546115054    0.0600
     54 H54       -14.5106   -3.0632   60.3845 H       1  ZINC000546115054    0.0800
     55 H55       -13.0958   -2.6251   59.3974 H       1  ZINC000546115054    0.0700
@<TRIPOS>BOND
     1     1     2    1
     2     1    30    1
     3     1    31    1
     4     1    32    1
     5     2     3    1
     6     2    33    1
     7     2    34    1
     8     3     4    1
     9     4     5    1
    10     4    10    1
    11     4     6    1
    12     6     7    1
    13     6    35    1
    14     6    36    1
    15     7     8    1
    16     8     9    1
    17     8    37    1
    18     8    38    1
    19     9    10    1
    20     9    39    1
    21     9    40    1
    22    10    11    1
    23    10    12    1
    24    12    13   am
    25    12    41    1
    26    13    14    2
    27    13    15   am
    28    15    16    1
    29    15    42    1
    30    16    17    1
    31    16    18    1
    32    16    25    1
    33    18    19    1
    34    18    43    1
    35    18    44    1
    36    19    24   ar
    37    19    20   ar
    38    20    21   ar
    39    20    45    1
    40    21    22   ar
    41    21    46    1
    42    22    23   ar
    43    22    47    1
    44    23    24   ar
    45    23    48    1
    46    24    49    1
    47    25    26    2
    48    25    27   am
    49    27    28    1
    50    27    29    1
    51    28    50    1
    52    28    51    1
    53    28    52    1
    54    29    53    1
    55    29    54    1
    56    29    55    1
@<TRIPOS>SUBSTRUCTURE
     1 ZINC000546115054        1 TEMP              0 ****  ****    0 ROOT


##########                                Name:    ZINC000547864253
##########                DOCK_Rotatable_Bonds:                   6
##########                         Heavy_Atoms:                  30
##########                    Molecular_Weight:             422.548
##########                DOCK_Rotatable_Bonds:                   6
##########                       Formal_Charge:           0.0300002
##########                     HBond_Acceptors:                   6
##########                        HBond_Donors:                   2
##########                         Heavy_Atoms:                  30
##########                          Grid_Score:          -34.399296
##########                     Grid_vdw_energy:          -33.768044
##########                      Grid_es_energy:           -0.631253
##########           Internal_energy_repulsive:           12.429024

@<TRIPOS>MOLECULE
ZINC000547864253
 56 60 1 0 0
SMALL
USER_CHARGES


@<TRIPOS>ATOM
      1 O1        -10.6559   -1.6578   51.7701 O.2     1  ZINC000547864253   -0.5300
      2 C2        -10.7995   -0.9121   52.7157 C.2     1  ZINC000547864253    0.5400
      3 N3         -9.7859   -0.1127   53.1035 N.am    1  ZINC000547864253   -0.7200
      4 C4         -8.5089   -0.1492   52.3864 C.3     1  ZINC000547864253    0.1300
      5 C5         -7.7652    1.1706   52.6017 C.3     1  ZINC000547864253    0.0200
      6 H6         -7.5777    1.3124   53.6661 H       1  ZINC000547864253    0.0900
      7 C7         -6.4534    1.1347   51.8610 C.2     1  ZINC000547864253   -0.1600
      8 C8         -6.0624    0.2059   50.9741 C.2     1  ZINC000547864253    0.0600
      9 N9         -4.8107    0.5035   50.5081 N.pl3   1  ZINC000547864253   -0.5900
     10 C10        -4.3541    1.6605   51.0988 C.ar    1  ZINC000547864253    0.1000
     11 C11        -3.1763    2.3918   50.9881 C.ar    1  ZINC000547864253   -0.1300
     12 C12        -3.0113    3.5400   51.7318 C.ar    1  ZINC000547864253   -0.1000
     13 C13        -4.0095    3.9758   52.5918 C.ar    1  ZINC000547864253   -0.1400
     14 C14        -5.1747    3.2727   52.7160 C.ar    1  ZINC000547864253   -0.0700
     15 C15        -5.3656    2.1100   51.9674 C.ar    1  ZINC000547864253   -0.1000
     16 C16        -8.6039    2.3102   52.0832 C.ar    1  ZINC000547864253   -0.0700
     17 C17        -8.4221    2.7707   50.7926 C.ar    1  ZINC000547864253   -0.1100
     18 C18        -9.1914    3.8161   50.3169 C.ar    1  ZINC000547864253   -0.1200
     19 C19       -10.1428    4.4007   51.1318 C.ar    1  ZINC000547864253   -0.1200
     20 C20       -10.3254    3.9395   52.4221 C.ar    1  ZINC000547864253   -0.1100
     21 C21        -9.5590    2.8913   52.8963 C.ar    1  ZINC000547864253   -0.1200
     22 C22       -12.1131   -0.8746   53.4533 C.3     1  ZINC000547864253   -0.1700
     23 H23       -12.9590   -0.4846   52.8872 H       1  ZINC000547864253    0.1400
     24 C24       -12.0722   -0.5818   54.9542 C.3     1  ZINC000547864253   -0.1300
     25 C25       -12.3916   -1.9953   54.4586 C.3     1  ZINC000547864253   -0.1400
     26 C26       -13.8368   -2.4774   54.5907 C.3     1  ZINC000547864253   -0.0700
     27 C27       -14.0893   -2.9658   56.0187 C.3     1  ZINC000547864253   -0.6000
     28 S28       -12.9735   -4.3511   56.3822 S.o2    1  ZINC000547864253    2.4200
     29 O29       -13.0705   -4.6612   57.7656 O.2     1  ZINC000547864253   -0.9400
     30 O30       -13.1950   -5.3761   55.4233 O.2     1  ZINC000547864253   -0.9300
     31 C31       -11.3497   -3.6021   56.0682 C.3     1  ZINC000547864253   -0.6000
     32 C32       -11.3120   -3.0638   54.6363 C.3     1  ZINC000547864253   -0.0700
     33 H33        -9.9019    0.4866   53.8572 H       1  ZINC000547864253    0.4000
     34 H34        -7.9035   -0.9731   52.7640 H       1  ZINC000547864253    0.0800
     35 H35        -8.6939   -0.2923   51.3218 H       1  ZINC000547864253    0.0700
     36 H36        -6.6487   -0.6497   50.6733 H       1  ZINC000547864253    0.1700
     37 H37        -4.3184   -0.0223   49.8585 H       1  ZINC000547864253    0.4200
     38 H38        -2.3934    2.0606   50.3218 H       1  ZINC000547864253    0.1200
     39 H39        -2.0958    4.1063   51.6448 H       1  ZINC000547864253    0.1300
     40 H40        -3.8641    4.8778   53.1679 H       1  ZINC000547864253    0.1200
     41 H41        -5.9471    3.6179   53.3874 H       1  ZINC000547864253    0.1200
     42 H42        -7.6787    2.3140   50.1560 H       1  ZINC000547864253    0.1200
     43 H43        -9.0488    4.1764   49.3088 H       1  ZINC000547864253    0.1200
     44 H44       -10.7434    5.2178   50.7603 H       1  ZINC000547864253    0.1200
     45 H45       -11.0685    4.3964   53.0588 H       1  ZINC000547864253    0.1200
     46 H46        -9.7016    2.5310   53.9044 H       1  ZINC000547864253    0.1200
     47 H47       -11.0952   -0.4162   55.4083 H       1  ZINC000547864253    0.1100
     48 H48       -12.8915    0.0006   55.3758 H       1  ZINC000547864253    0.1100
     49 H49       -14.5156   -1.6555   54.3631 H       1  ZINC000547864253    0.0900
     50 H50       -14.0116   -3.2952   53.8915 H       1  ZINC000547864253    0.0900
     51 H51       -13.9012   -2.1529   56.7201 H       1  ZINC000547864253    0.1400
     52 H52       -15.1236   -3.2969   56.1128 H       1  ZINC000547864253    0.1400
     53 H53       -11.1843   -2.7839   56.7693 H       1  ZINC000547864253    0.1400
     54 H54       -10.5710   -4.3543   56.1951 H       1  ZINC000547864253    0.1400
     55 H55       -11.4916   -3.8805   53.9371 H       1  ZINC000547864253    0.0900
     56 H56       -10.3332   -2.6268   54.4389 H       1  ZINC000547864253    0.0900
@<TRIPOS>BOND
     1     1     2    2
     2     2     3   am
     3     2    22    1
     4     3     4    1
     5     3    33    1
     6     4     5    1
     7     4    34    1
     8     4    35    1
     9     5     6    1
    10     5     7    1
    11     5    16    1
    12     7    15    1
    13     7     8    2
    14     8     9    1
    15     8    36    1
    16     9    10    1
    17     9    37    1
    18    10    15   ar
    19    10    11   ar
    20    11    12   ar
    21    11    38    1
    22    12    13   ar
    23    12    39    1
    24    13    14   ar
    25    13    40    1
    26    14    15   ar
    27    14    41    1
    28    16    21   ar
    29    16    17   ar
    30    17    18   ar
    31    17    42    1
    32    18    19   ar
    33    18    43    1
    34    19    20   ar
    35    19    44    1
    36    20    21   ar
    37    20    45    1
    38    21    46    1
    39    22    23    1
    40    22    25    1
    41    22    24    1
    42    24    25    1
    43    24    47    1
    44    24    48    1
    45    25    32    1
    46    25    26    1
    47    26    27    1
    48    26    49    1
    49    26    50    1
    50    27    28    1
    51    27    51    1
    52    27    52    1
    53    28    29    2
    54    28    30    2
    55    28    31    1
    56    31    32    1
    57    31    53    1
    58    31    54    1
    59    32    55    1
    60    32    56    1
@<TRIPOS>SUBSTRUCTURE
     1 ZINC000547864253        1 TEMP              0 ****  ****    0 ROOT


##########                                Name:    ZINC000989658617
##########                DOCK_Rotatable_Bonds:                   6
##########                         Heavy_Atoms:                  24
##########                    Molecular_Weight:             334.418
##########                DOCK_Rotatable_Bonds:                   6
##########                       Formal_Charge:          -0.0100001
##########                     HBond_Acceptors:                   7
##########                        HBond_Donors:                   2
##########                         Heavy_Atoms:                  24
##########                          Grid_Score:          -34.398964
##########                     Grid_vdw_energy:          -33.659935
##########                      Grid_es_energy:           -0.739028
##########           Internal_energy_repulsive:           10.356406

@<TRIPOS>MOLECULE
ZINC000989658617
 50 52 1 0 0
SMALL
USER_CHARGES


@<TRIPOS>ATOM
      1 C1        -14.9323   -1.5472   48.9614 C.3     1  ZINC000989658617    0.0300
      2 O2        -13.8313   -1.8319   49.8267 O.3     1  ZINC000989658617   -0.3700
      3 C3        -14.1479   -1.7468   51.2176 C.3     1  ZINC000989658617    0.0500
      4 C4        -12.9210   -2.0657   52.0325 C.2     1  ZINC000989658617    0.5300
      5 O5        -11.8193   -1.8063   51.5967 O.2     1  ZINC000989658617   -0.5100
      6 N6        -13.0481   -2.6391   53.2455 N.am    1  ZINC000989658617   -0.6200
      7 C7        -14.3204   -3.0061   53.8933 C.3     1  ZINC000989658617    0.1000
      8 C8        -14.0030   -3.0234   55.4095 C.3     1  ZINC000989658617   -0.1500
      9 C9        -12.5636   -3.6026   55.4198 C.3     1  ZINC000989658617    0.1400
     10 H10       -12.5855   -4.6910   55.3643 H       1  ZINC000989658617    0.1100
     11 N11       -11.8357   -3.1608   56.6119 N.am    1  ZINC000989658617   -0.7100
     12 C12       -11.2510   -4.0679   57.4192 C.2     1  ZINC000989658617    0.6100
     13 O13       -11.3290   -5.2528   57.1590 O.2     1  ZINC000989658617   -0.5200
     14 C14       -10.5155   -3.6224   58.6202 C.2     1  ZINC000989658617   -0.0100
     15 N15        -9.6870   -4.3468   59.3528 N.2     1  ZINC000989658617   -0.2600
     16 N16        -9.2218   -3.6412   60.3254 N.pl3   1  ZINC000989658617   -0.3700
     17 C17        -9.7298   -2.3988   60.2768 C.2     1  ZINC000989658617    0.0100
     18 C18       -10.5555   -2.3446   59.2028 C.2     1  ZINC000989658617   -0.1400
     19 C19       -11.3357   -1.1286   58.7855 C.3     1  ZINC000989658617   -0.0400
     20 C20       -11.3621   -0.1456   59.9638 C.3     1  ZINC000989658617   -0.0900
     21 H21       -11.9982   -0.5434   60.7545 H       1  ZINC000989658617    0.0700
     22 C22       -11.9161    1.2004   59.4925 C.3     1  ZINC000989658617   -0.1500
     23 C23        -9.9412    0.0475   60.5006 C.3     1  ZINC000989658617   -0.1100
     24 C24        -9.4720   -1.2342   61.1980 C.3     1  ZINC000989658617   -0.0500
     25 C25       -11.9404   -3.0081   54.1392 C.3     1  ZINC000989658617    0.1300
     26 H26       -11.3594   -2.1199   54.3875 H       1  ZINC000989658617    0.0800
     27 C27       -11.0406   -4.0474   53.4676 C.3     1  ZINC000989658617   -0.1600
     28 H28       -15.7373   -2.2570   49.1520 H       1  ZINC000989658617    0.0500
     29 H29       -15.2892   -0.5343   49.1487 H       1  ZINC000989658617    0.0400
     30 H30       -14.6105   -1.6329   47.9235 H       1  ZINC000989658617    0.0900
     31 H31       -14.4876   -0.7380   51.4518 H       1  ZINC000989658617    0.0800
     32 H32       -14.9372   -2.4602   51.4548 H       1  ZINC000989658617    0.0800
     33 H33       -15.0862   -2.2618   53.6746 H       1  ZINC000989658617    0.0800
     34 H34       -14.6440   -3.9929   53.5623 H       1  ZINC000989658617    0.0800
     35 H35       -14.0215   -2.0154   55.8240 H       1  ZINC000989658617    0.0800
     36 H36       -14.6911   -3.6772   55.9454 H       1  ZINC000989658617    0.1000
     37 H37       -11.7745   -2.2154   56.8202 H       1  ZINC000989658617    0.4100
     38 H38        -8.5964   -3.9605   60.9945 H       1  ZINC000989658617    0.4500
     39 H39       -10.8546   -0.6602   57.9269 H       1  ZINC000989658617    0.0800
     40 H40       -12.3539   -1.4169   58.5247 H       1  ZINC000989658617    0.0800
     41 H41       -12.9279    1.0634   59.1109 H       1  ZINC000989658617    0.0600
     42 H42       -11.9348    1.8988   60.3293 H       1  ZINC000989658617    0.0600
     43 H43       -11.2802    1.5983   58.7016 H       1  ZINC000989658617    0.0600
     44 H44        -9.2685    0.2739   59.6734 H       1  ZINC000989658617    0.0700
     45 H45        -9.9312    0.8732   61.2122 H       1  ZINC000989658617    0.0800
     46 H46       -10.0301   -1.3739   62.1237 H       1  ZINC000989658617    0.0800
     47 H47        -8.4067   -1.1637   61.4178 H       1  ZINC000989658617    0.0800
     48 H48       -11.6316   -4.9251   53.2060 H       1  ZINC000989658617    0.0600
     49 H49       -10.6042   -3.6208   52.5644 H       1  ZINC000989658617    0.0700
     50 H50       -10.2447   -4.3367   54.1539 H       1  ZINC000989658617    0.0700
@<TRIPOS>BOND
     1     1     2    1
     2     1    28    1
     3     1    29    1
     4     1    30    1
     5     2     3    1
     6     3     4    1
     7     3    31    1
     8     3    32    1
     9     4     5    2
    10     4     6   am
    11     6    25    1
    12     6     7    1
    13     7     8    1
    14     7    33    1
    15     7    34    1
    16     8     9    1
    17     8    35    1
    18     8    36    1
    19     9    10    1
    20     9    11    1
    21     9    25    1
    22    11    12   am
    23    11    37    1
    24    12    13    2
    25    12    14    1
    26    14    18    1
    27    14    15    2
    28    15    16    1
    29    16    17    1
    30    16    38    1
    31    17    24    1
    32    17    18    2
    33    18    19    1
    34    19    20    1
    35    19    39    1
    36    19    40    1
    37    20    21    1
    38    20    22    1
    39    20    23    1
    40    22    41    1
    41    22    42    1
    42    22    43    1
    43    23    24    1
    44    23    44    1
    45    23    45    1
    46    24    46    1
    47    24    47    1
    48    25    26    1
    49    25    27    1
    50    27    48    1
    51    27    49    1
    52    27    50    1
@<TRIPOS>SUBSTRUCTURE
     1 ZINC000989658617        1 TEMP              0 ****  ****    0 ROOT


##########                                Name:    ZINC001340305486
##########                DOCK_Rotatable_Bonds:                   8
##########                         Heavy_Atoms:                  27
##########                    Molecular_Weight:             378.431
##########                DOCK_Rotatable_Bonds:                   8
##########                       Formal_Charge:          0.00999955
##########                     HBond_Acceptors:                  10
##########                        HBond_Donors:                   2
##########                         Heavy_Atoms:                  27
##########                          Grid_Score:          -34.388996
##########                     Grid_vdw_energy:          -33.277653
##########                      Grid_es_energy:           -1.111342
##########           Internal_energy_repulsive:           12.924337

@<TRIPOS>MOLECULE
ZINC001340305486
 53 55 1 0 0
SMALL
USER_CHARGES


@<TRIPOS>ATOM
      1 C1         -9.0811    0.9877   53.4360 C.3     1  ZINC001340305486    0.0900
      2 N2        -10.2747    0.4258   52.7990 N.am    1  ZINC001340305486   -0.7300
      3 C3        -11.4588    1.0605   52.9080 C.2     1  ZINC001340305486    0.5200
      4 O4        -11.5363    2.0960   53.5346 O.2     1  ZINC001340305486   -0.5100
      5 C5        -12.6863    0.4835   52.2513 C.3     1  ZINC001340305486    0.0600
      6 H6        -13.5786    0.8816   52.7342 H       1  ZINC001340305486    0.0900
      7 C7        -12.6692   -1.0434   52.3861 C.3     1  ZINC001340305486    0.0900
      8 N8        -13.7714   -1.5928   51.5807 N.am    1  ZINC001340305486   -0.5800
      9 C9        -14.6427   -2.4757   52.1077 C.2     1  ZINC001340305486    0.5100
     10 O10       -15.5448   -2.9180   51.4270 O.2     1  ZINC001340305486   -0.5200
     11 C11       -14.4977   -2.9105   53.5302 C.2     1  ZINC001340305486    0.5200
     12 O12       -15.2753   -2.5072   54.3701 O.2     1  ZINC001340305486   -0.5000
     13 N13       -13.5034   -3.7502   53.8802 N.am    1  ZINC001340305486   -0.6900
     14 C14       -13.3603   -4.1750   55.2750 C.3     1  ZINC001340305486    0.1200
     15 C15       -12.7061   -3.0538   56.0850 C.3     1  ZINC001340305486   -0.0400
     16 C16       -11.7524   -3.6497   57.0882 C.2     1  ZINC001340305486    0.1700
     17 N17       -11.5309   -4.9222   57.2877 N.2     1  ZINC001340305486   -0.2800
     18 N18       -10.6507   -5.0692   58.2157 N.2     1  ZINC001340305486   -0.2900
     19 C19       -10.2698   -3.8995   58.6441 C.2     1  ZINC001340305486    0.1900
     20 C20        -9.2383   -3.6095   59.7034 C.3     1  ZINC001340305486   -0.0400
     21 C21        -9.7945   -2.5594   60.6697 C.3     1  ZINC001340305486   -0.1200
     22 C22        -9.4698   -1.1626   60.1488 C.3     1  ZINC001340305486   -0.1300
     23 C23        -9.4844   -1.1443   58.6210 C.3     1  ZINC001340305486   -0.1400
     24 C24       -10.8799   -1.5170   58.1128 C.3     1  ZINC001340305486    0.1000
     25 N25       -10.9615   -2.9685   57.9465 N.pl3   1  ZINC001340305486   -0.4600
     26 C26       -13.8940   -1.1500   50.1827 C.3     1  ZINC001340305486    0.0200
     27 C27       -13.8513    0.3821   50.1553 C.3     1  ZINC001340305486    0.0500
     28 O28       -12.6962    0.8346   50.8655 O.3     1  ZINC001340305486   -0.3500
     29 H29        -8.8860    1.9804   53.0303 H       1  ZINC001340305486    0.0600
     30 H30        -9.2431    1.0600   54.5114 H       1  ZINC001340305486    0.0600
     31 H31        -8.2260    0.3407   53.2400 H       1  ZINC001340305486    0.0800
     32 H32       -10.2130   -0.4030   52.2989 H       1  ZINC001340305486    0.4000
     33 H33       -11.7186   -1.4335   52.0220 H       1  ZINC001340305486    0.0900
     34 H34       -12.8044   -1.3212   53.4314 H       1  ZINC001340305486    0.1100
     35 H35       -12.8826   -4.0734   53.2087 H       1  ZINC001340305486    0.4200
     36 H36       -14.3437   -4.3968   55.6900 H       1  ZINC001340305486    0.0900
     37 H37       -12.7368   -5.0678   55.3209 H       1  ZINC001340305486    0.0800
     38 H38       -12.1600   -2.3915   55.4133 H       1  ZINC001340305486    0.0900
     39 H39       -13.4761   -2.4866   56.6081 H       1  ZINC001340305486    0.1100
     40 H40        -9.0107   -4.5242   60.2507 H       1  ZINC001340305486    0.1000
     41 H41        -8.3310   -3.2288   59.2341 H       1  ZINC001340305486    0.0900
     42 H42       -10.8754   -2.6752   60.7488 H       1  ZINC001340305486    0.0600
     43 H43        -9.3423   -2.6945   61.6523 H       1  ZINC001340305486    0.0800
     44 H44       -10.2114   -0.4573   60.5241 H       1  ZINC001340305486    0.0700
     45 H45        -8.4820   -0.8672   60.5027 H       1  ZINC001340305486    0.0800
     46 H46        -9.2245   -0.1462   58.2678 H       1  ZINC001340305486    0.0900
     47 H47        -8.7569   -1.8625   58.2428 H       1  ZINC001340305486    0.0800
     48 H48       -11.6291   -1.1871   58.8325 H       1  ZINC001340305486    0.0900
     49 H49       -11.0589   -1.0323   57.1530 H       1  ZINC001340305486    0.1000
     50 H50       -13.0667   -1.5509   49.5969 H       1  ZINC001340305486    0.0800
     51 H51       -14.8402   -1.4985   49.7689 H       1  ZINC001340305486    0.1700
     52 H52       -13.8017    0.7265   49.1223 H       1  ZINC001340305486    0.1200
     53 H53       -14.7485    0.7798   50.6298 H       1  ZINC001340305486    0.0600
@<TRIPOS>BOND
     1     1     2    1
     2     1    29    1
     3     1    30    1
     4     1    31    1
     5     2     3   am
     6     2    32    1
     7     3     4    2
     8     3     5    1
     9     5     6    1
    10     5    28    1
    11     5     7    1
    12     7     8    1
    13     7    33    1
    14     7    34    1
    15     8     9   am
    16     8    26    1
    17     9    10    2
    18     9    11    1
    19    11    12    2
    20    11    13   am
    21    13    14    1
    22    13    35    1
    23    14    15    1
    24    14    36    1
    25    14    37    1
    26    15    16    1
    27    15    38    1
    28    15    39    1
    29    16    25    1
    30    16    17    2
    31    17    18    1
    32    18    19    2
    33    19    25    1
    34    19    20    1
    35    20    21    1
    36    20    40    1
    37    20    41    1
    38    21    22    1
    39    21    42    1
    40    21    43    1
    41    22    23    1
    42    22    44    1
    43    22    45    1
    44    23    24    1
    45    23    46    1
    46    23    47    1
    47    24    25    1
    48    24    48    1
    49    24    49    1
    50    26    27    1
    51    26    50    1
    52    26    51    1
    53    27    28    1
    54    27    52    1
    55    27    53    1
@<TRIPOS>SUBSTRUCTURE
     1 ZINC001340305486        1 TEMP              0 ****  ****    0 ROOT


##########                                Name:    ZINC000624498741
##########                DOCK_Rotatable_Bonds:                   7
##########                         Heavy_Atoms:                  27
##########                    Molecular_Weight:             379.339
##########                DOCK_Rotatable_Bonds:                   7
##########                       Formal_Charge:           0.0300003
##########                     HBond_Acceptors:                   9
##########                        HBond_Donors:                   0
##########                         Heavy_Atoms:                  27
##########                          Grid_Score:          -34.377434
##########                     Grid_vdw_energy:          -33.687950
##########                      Grid_es_energy:           -0.689484
##########           Internal_energy_repulsive:           11.068923

@<TRIPOS>MOLECULE
ZINC000624498741
 43 45 1 0 0
SMALL
USER_CHARGES


@<TRIPOS>ATOM
      1 C1        -11.0708    1.2157   59.4773 C.3     1  ZINC000624498741   -0.1100
      2 C2        -10.7210   -0.2129   59.8057 C.ar    1  ZINC000624498741   -0.0900
      3 C3        -11.1656   -1.2337   58.9948 C.ar    1  ZINC000624498741   -0.0400
      4 C4        -10.8404   -2.5577   59.2999 C.ar    1  ZINC000624498741   -0.0500
      5 C5        -11.3145   -3.6549   58.4330 C.2     1  ZINC000624498741    0.2300
      6 N6        -12.4854   -3.7305   57.8238 N.2     1  ZINC000624498741   -0.4700
      7 C7        -12.4681   -4.8937   57.1547 C.2     1  ZINC000624498741    0.1800
      8 C8        -13.5788   -5.4435   56.2975 C.3     1  ZINC000624498741   -0.0300
      9 C9        -13.8487   -4.4850   55.1360 C.3     1  ZINC000624498741   -0.1300
     10 C10       -12.6497   -4.4848   54.1856 C.3     1  ZINC000624498741    0.0900
     11 N11       -12.7509   -3.3442   53.2717 N.am    1  ZINC000624498741   -0.5000
     12 C12       -13.9599   -3.0011   52.7581 C.2     1  ZINC000624498741    0.1300
     13 C13       -14.0784   -1.9516   51.9117 C.2     1  ZINC000624498741   -0.2300
     14 C14       -12.9448   -1.2065   51.5577 C.2     1  ZINC000624498741   -0.0200
     15 C15       -11.7312   -1.5525   52.0751 C.2     1  ZINC000624498741   -0.2400
     16 C16       -11.6447   -2.6447   52.9552 C.2     1  ZINC000624498741    0.5100
     17 O17       -10.5649   -2.9652   53.4255 O.2     1  ZINC000624498741   -0.5500
     18 N18       -11.3193   -5.4603   57.3793 N.2     1  ZINC000624498741   -0.3700
     19 O19       -10.6384   -4.7673   58.1052 O.3     1  ZINC000624498741    0.0900
     20 C20       -10.0653   -2.8406   60.4268 C.ar    1  ZINC000624498741   -0.0200
     21 C21        -9.6246   -1.8138   61.2329 C.ar    1  ZINC000624498741   -0.1900
     22 C22        -9.9457   -0.4981   60.9230 C.ar    1  ZINC000624498741    0.1300
     23 O23        -9.5095    0.5109   61.7200 O.3     1  ZINC000624498741   -0.3000
     24 C24       -10.1522    0.6607   62.9874 C.3     1  ZINC000624498741    0.6000
     25 F25       -11.4035    0.0361   62.9525 F       1  ZINC000624498741   -0.1600
     26 F26        -9.3646    0.0715   63.9823 F       1  ZINC000624498741   -0.1300
     27 F27       -10.3178    2.0211   63.2685 F       1  ZINC000624498741   -0.1600
     28 H28       -10.3041    1.6373   58.8272 H       1  ZINC000624498741    0.0800
     29 H29       -12.0347    1.2463   58.9693 H       1  ZINC000624498741    0.0800
     30 H30       -11.1266    1.7969   60.3977 H       1  ZINC000624498741    0.0800
     31 H31       -11.7650   -1.0109   58.1245 H       1  ZINC000624498741    0.1500
     32 H32       -13.2865   -6.4173   55.9044 H       1  ZINC000624498741    0.1000
     33 H33       -14.4823   -5.5504   56.8979 H       1  ZINC000624498741    0.1000
     34 H34       -14.7393   -4.8087   54.5971 H       1  ZINC000624498741    0.0800
     35 H35       -14.0047   -3.4785   55.5242 H       1  ZINC000624498741    0.0800
     36 H36       -11.7285   -4.4071   54.7629 H       1  ZINC000624498741    0.1100
     37 H37       -12.6413   -5.4111   53.6110 H       1  ZINC000624498741    0.1000
     38 H38       -14.8363   -3.5717   53.0275 H       1  ZINC000624498741    0.1600
     39 H39       -15.0454   -1.6887   51.5088 H       1  ZINC000624498741    0.1500
     40 H40       -13.0316   -0.3680   50.8825 H       1  ZINC000624498741    0.1400
     41 H41       -10.8465   -0.9905   51.8143 H       1  ZINC000624498741    0.1500
     42 H42        -9.8122   -3.8629   60.6663 H       1  ZINC000624498741    0.1500
     43 H43        -9.0255   -2.0317   62.1047 H       1  ZINC000624498741    0.1500
@<TRIPOS>BOND
     1     1     2    1
     2     1    28    1
     3     1    29    1
     4     1    30    1
     5     2    22   ar
     6     2     3   ar
     7     3     4   ar
     8     3    31    1
     9     4     5    1
    10     4    20   ar
    11     5    19    1
    12     5     6    2
    13     6     7    1
    14     7     8    1
    15     7    18    2
    16     8     9    1
    17     8    32    1
    18     8    33    1
    19     9    10    1
    20     9    34    1
    21     9    35    1
    22    10    11    1
    23    10    36    1
    24    10    37    1
    25    11    16   am
    26    11    12    1
    27    12    13    2
    28    12    38    1
    29    13    14    1
    30    13    39    1
    31    14    15    2
    32    14    40    1
    33    15    16    1
    34    15    41    1
    35    16    17    2
    36    18    19    1
    37    20    21   ar
    38    20    42    1
    39    21    22   ar
    40    21    43    1
    41    22    23    1
    42    23    24    1
    43    24    25    1
    44    24    26    1
    45    24    27    1
@<TRIPOS>SUBSTRUCTURE
     1 ZINC000624498741        1 TEMP              0 ****  ****    0 ROOT


##########                                Name:    ZINC000532153088
##########                DOCK_Rotatable_Bonds:                  11
##########                         Heavy_Atoms:                  29
##########                    Molecular_Weight:             402.484
##########                DOCK_Rotatable_Bonds:                  11
##########                       Formal_Charge:          -0.0200009
##########                     HBond_Acceptors:                   6
##########                        HBond_Donors:                   1
##########                         Heavy_Atoms:                  29
##########                          Grid_Score:          -34.370094
##########                     Grid_vdw_energy:          -34.857681
##########                      Grid_es_energy:            0.487586
##########           Internal_energy_repulsive:           21.860319

@<TRIPOS>MOLECULE
ZINC000532153088
 57 59 1 0 0
SMALL
USER_CHARGES


@<TRIPOS>ATOM
      1 C1        -10.9646   -3.5839   53.8767 C.3     1  ZINC000532153088   -0.1800
      2 C2        -10.9372   -2.9259   52.4957 C.3     1  ZINC000532153088    0.0800
      3 C3        -12.3182   -2.3491   52.1780 C.3     1  ZINC000532153088   -0.1500
      4 O4         -9.9687   -1.8752   52.4877 O.3     1  ZINC000532153088   -0.3800
      5 C5        -10.2664   -0.8035   53.3850 C.3     1  ZINC000532153088    0.1000
      6 C6         -9.1805    0.2381   53.3009 C.ar    1  ZINC000532153088   -0.0700
      7 C7         -8.3737    0.3065   52.1809 C.ar    1  ZINC000532153088   -0.1000
      8 C8         -7.3775    1.2622   52.1039 C.ar    1  ZINC000532153088   -0.1100
      9 C9         -7.1888    2.1494   53.1468 C.ar    1  ZINC000532153088   -0.1200
     10 C10        -7.9966    2.0816   54.2668 C.ar    1  ZINC000532153088   -0.1000
     11 C11        -8.9952    1.1290   54.3419 C.ar    1  ZINC000532153088   -0.1100
     12 C12        -9.8757    1.0550   55.5628 C.3     1  ZINC000532153088    0.1600
     13 N13        -9.2658    0.1623   56.5514 N.am    1  ZINC000532153088   -0.7300
     14 C14        -9.9557   -0.1956   57.6525 C.2     1  ZINC000532153088    0.5100
     15 O15       -11.0808    0.2226   57.8256 O.2     1  ZINC000532153088   -0.5000
     16 C16        -9.3289   -1.1153   58.6685 C.3     1  ZINC000532153088    0.0300
     17 N17       -10.2524   -1.3018   59.7956 N.3     1  ZINC000532153088   -0.4800
     18 C18       -10.6078   -2.7181   59.9562 C.3     1  ZINC000532153088    0.1000
     19 C19       -11.7281   -3.0652   59.0099 C.ar    1  ZINC000532153088   -0.1300
     20 C20       -11.5400   -4.0343   58.0430 C.ar    1  ZINC000532153088   -0.0600
     21 C21       -12.5668   -4.3542   57.1746 C.ar    1  ZINC000532153088   -0.1700
     22 C22       -13.7850   -3.7038   57.2727 C.ar    1  ZINC000532153088    0.1300
     23 F23       -14.7886   -4.0170   56.4242 F       1  ZINC000532153088   -0.1300
     24 C24       -13.9746   -2.7328   58.2411 C.ar    1  ZINC000532153088   -0.2000
     25 C25       -12.9476   -2.4171   59.1134 C.ar    1  ZINC000532153088    0.1600
     26 F26       -13.1312   -1.4697   60.0589 F       1  ZINC000532153088   -0.1100
     27 C27        -9.6852   -0.7574   61.0366 C.3     1  ZINC000532153088    0.0200
     28 C28        -9.8818    0.7354   61.3078 C.3     1  ZINC000532153088   -0.2200
     29 C29       -10.6642   -0.2990   62.1192 C.3     1  ZINC000532153088   -0.1700
     30 H30       -11.7033   -4.3853   53.8828 H       1  ZINC000532153088    0.0700
     31 H31        -9.9808   -3.9948   54.1029 H       1  ZINC000532153088    0.0600
     32 H32       -11.2293   -2.8400   54.6283 H       1  ZINC000532153088    0.0700
     33 H33       -10.6725   -3.6697   51.7440 H       1  ZINC000532153088    0.0600
     34 H34       -12.5829   -1.6052   52.9296 H       1  ZINC000532153088    0.0600
     35 H35       -12.2986   -1.8804   51.1941 H       1  ZINC000532153088    0.0600
     36 H36       -13.0569   -3.1505   52.1841 H       1  ZINC000532153088    0.0700
     37 H37       -11.2216   -0.3555   53.1116 H       1  ZINC000532153088    0.0600
     38 H38       -10.3234   -1.1876   54.4035 H       1  ZINC000532153088    0.0600
     39 H39        -8.5211   -0.3867   51.3660 H       1  ZINC000532153088    0.1300
     40 H40        -6.7465    1.3152   51.2289 H       1  ZINC000532153088    0.1200
     41 H41        -6.4103    2.8955   53.0869 H       1  ZINC000532153088    0.1300
     42 H42        -7.8490    2.7746   55.0818 H       1  ZINC000532153088    0.1300
     43 H43        -9.9862    2.0509   55.9919 H       1  ZINC000532153088    0.0800
     44 H44       -10.8556    0.6698   55.2812 H       1  ZINC000532153088    0.0800
     45 H45        -8.3654   -0.1712   56.4134 H       1  ZINC000532153088    0.4000
     46 H46        -9.1209   -2.0801   58.2058 H       1  ZINC000532153088    0.0700
     47 H47        -8.3984   -0.6775   59.0298 H       1  ZINC000532153088    0.1100
     48 H48        -9.7393   -3.3381   59.7341 H       1  ZINC000532153088    0.0900
     49 H49       -10.9298   -2.8978   60.9820 H       1  ZINC000532153088    0.0500
     50 H50       -10.5899   -4.5420   57.9654 H       1  ZINC000532153088    0.1400
     51 H51       -12.4186   -5.1115   56.4190 H       1  ZINC000532153088    0.1400
     52 H52       -14.9247   -2.2249   58.3184 H       1  ZINC000532153088    0.1500
     53 H53        -8.7489   -1.2097   61.3635 H       1  ZINC000532153088    0.1200
     54 H54        -9.0746    1.2658   61.8132 H       1  ZINC000532153088    0.1000
     55 H55       -10.4320    1.3137   60.5654 H       1  ZINC000532153088    0.1000
     56 H56       -11.7292   -0.4013   61.9107 H       1  ZINC000532153088    0.1000
     57 H57       -10.3719   -0.4493   63.1585 H       1  ZINC000532153088    0.1000
@<TRIPOS>BOND
     1     1     2    1
     2     1    30    1
     3     1    31    1
     4     1    32    1
     5     2     3    1
     6     2     4    1
     7     2    33    1
     8     3    34    1
     9     3    35    1
    10     3    36    1
    11     4     5    1
    12     5     6    1
    13     5    37    1
    14     5    38    1
    15     6    11   ar
    16     6     7   ar
    17     7     8   ar
    18     7    39    1
    19     8     9   ar
    20     8    40    1
    21     9    10   ar
    22     9    41    1
    23    10    11   ar
    24    10    42    1
    25    11    12    1
    26    12    13    1
    27    12    43    1
    28    12    44    1
    29    13    14   am
    30    13    45    1
    31    14    15    2
    32    14    16    1
    33    16    17    1
    34    16    46    1
    35    16    47    1
    36    17    18    1
    37    17    27    1
    38    18    19    1
    39    18    48    1
    40    18    49    1
    41    19    25   ar
    42    19    20   ar
    43    20    21   ar
    44    20    50    1
    45    21    22   ar
    46    21    51    1
    47    22    23    1
    48    22    24   ar
    49    24    25   ar
    50    24    52    1
    51    25    26    1
    52    27    29    1
    53    27    28    1
    54    27    53    1
    55    28    29    1
    56    28    54    1
    57    28    55    1
    58    29    56    1
    59    29    57    1
@<TRIPOS>SUBSTRUCTURE
     1 ZINC000532153088        1 TEMP              0 ****  ****    0 ROOT


##########                                Name:    ZINC000545381384
##########                DOCK_Rotatable_Bonds:                   6
##########                         Heavy_Atoms:                  30
##########                    Molecular_Weight:             405.543
##########                DOCK_Rotatable_Bonds:                   6
##########                       Formal_Charge:                0.05
##########                     HBond_Acceptors:                   6
##########                        HBond_Donors:                   1
##########                         Heavy_Atoms:                  30
##########                          Grid_Score:          -34.345387
##########                     Grid_vdw_energy:          -34.335625
##########                      Grid_es_energy:           -0.009763
##########           Internal_energy_repulsive:           15.590582

@<TRIPOS>MOLECULE
ZINC000545381384
 61 64 1 0 0
SMALL
USER_CHARGES


@<TRIPOS>ATOM
      1 C1        -14.6591   -3.7713   54.7751 C.3     1  ZINC000545381384   -0.2000
      2 C2        -13.1714   -4.0958   54.9252 C.3     1  ZINC000545381384    0.0500
      3 N3        -12.3723   -3.0172   54.3287 N.3     1  ZINC000545381384   -0.5300
      4 C4        -11.5461   -3.5235   53.2214 C.3     1  ZINC000545381384    0.0500
      5 C5        -11.0385   -2.3327   52.4088 C.3     1  ZINC000545381384   -0.0700
      6 C6        -10.4015   -1.3168   53.3265 C.ar    1  ZINC000545381384    0.1800
      7 C7        -10.6376   -1.3384   54.6960 C.ar    1  ZINC000545381384   -0.0800
      8 C8        -11.5269   -2.3703   55.3372 C.3     1  ZINC000545381384    0.0900
      9 C9        -10.0380   -0.3838   55.5138 C.ar    1  ZINC000545381384   -0.0700
     10 C10       -10.2725   -0.3785   56.9736 C.2     1  ZINC000545381384    0.5800
     11 O11       -11.2606    0.1642   57.4285 O.2     1  ZINC000545381384   -0.4800
     12 N12        -9.3908   -0.9753   57.7998 N.am    1  ZINC000545381384   -0.6400
     13 C13        -9.6125   -0.9718   59.1754 C.2     1  ZINC000545381384    0.3000
     14 C14        -9.5679    0.1142   59.9956 C.2     1  ZINC000545381384   -0.2700
     15 C15        -9.8492   -0.3178   61.2943 C.2     1  ZINC000545381384    0.1000
     16 C16        -9.9056    0.5561   62.5207 C.3     1  ZINC000545381384   -0.0300
     17 C17       -11.2944    1.1884   62.6329 C.3     1  ZINC000545381384   -0.0600
     18 C18       -11.3171    2.1632   63.8119 C.3     1  ZINC000545381384   -0.1500
     19 C19       -11.6174    1.9424   61.3414 C.3     1  ZINC000545381384   -0.1400
     20 C20       -12.3374    0.0917   62.8576 C.3     1  ZINC000545381384   -0.1400
     21 N21       -10.0557   -1.6094   61.2653 N.2     1  ZINC000545381384   -0.2700
     22 N22        -9.9185   -2.0499   59.9426 N.pl3   1  ZINC000545381384   -0.3900
     23 C23       -10.0695   -3.4291   59.4723 C.3     1  ZINC000545381384    0.1000
     24 C24        -9.1969    0.5814   54.9082 C.ar    1  ZINC000545381384   -0.0700
     25 C25        -8.5566    1.5730   55.6622 C.ar    1  ZINC000545381384   -0.1100
     26 C26        -7.7545    2.4810   55.0385 C.ar    1  ZINC000545381384   -0.1000
     27 C27        -7.5631    2.4359   53.6589 C.ar    1  ZINC000545381384   -0.1000
     28 C28        -8.1707    1.4868   52.8965 C.ar    1  ZINC000545381384   -0.0900
     29 C29        -9.0061    0.5318   53.5051 C.ar    1  ZINC000545381384    0.1400
     30 N30        -9.6151   -0.4095   52.7850 N.ar    1  ZINC000545381384   -0.4600
     31 H31       -14.8726   -2.8158   55.2542 H       1  ZINC000545381384    0.0600
     32 H32       -14.9130   -3.7120   53.7169 H       1  ZINC000545381384    0.0600
     33 H33       -15.2514   -4.5550   55.2476 H       1  ZINC000545381384    0.0700
     34 H34       -12.9247   -4.1885   55.9829 H       1  ZINC000545381384    0.0900
     35 H35       -12.9513   -5.0348   54.4173 H       1  ZINC000545381384    0.0800
     36 H36       -10.6993   -4.0811   53.6217 H       1  ZINC000545381384    0.0500
     37 H37       -12.1465   -4.1724   52.5838 H       1  ZINC000545381384    0.0900
     38 H38       -10.3015   -2.6775   51.6834 H       1  ZINC000545381384    0.1000
     39 H39       -11.8739   -1.8713   51.8823 H       1  ZINC000545381384    0.1000
     40 H40       -12.1597   -1.8876   56.0819 H       1  ZINC000545381384    0.0900
     41 H41       -10.9095   -3.1234   55.8270 H       1  ZINC000545381384    0.0700
     42 H42        -8.6017   -1.4073   57.4369 H       1  ZINC000545381384    0.4100
     43 H43        -9.3530    1.1292   59.6957 H       1  ZINC000545381384    0.1700
     44 H44        -9.7087   -0.0477   63.4065 H       1  ZINC000545381384    0.0800
     45 H45        -9.1541    1.3417   62.4420 H       1  ZINC000545381384    0.0800
     46 H46       -10.5742    2.9445   63.6518 H       1  ZINC000545381384    0.0500
     47 H47       -12.3066    2.6137   63.8918 H       1  ZINC000545381384    0.0500
     48 H48       -11.0871    1.6261   64.7321 H       1  ZINC000545381384    0.0800
     49 H49       -11.6011    1.2479   60.5014 H       1  ZINC000545381384    0.0600
     50 H50       -12.6067    2.3928   61.4213 H       1  ZINC000545381384    0.0600
     51 H51       -10.8743    2.7236   61.1812 H       1  ZINC000545381384    0.0600
     52 H52       -12.1072   -0.4454   63.7778 H       1  ZINC000545381384    0.0500
     53 H53       -13.3267    0.5422   62.9376 H       1  ZINC000545381384    0.0500
     54 H54       -12.3210   -0.6028   62.0177 H       1  ZINC000545381384    0.0500
     55 H55       -11.1091   -3.6075   59.1974 H       1  ZINC000545381384    0.0800
     56 H56        -9.4315   -3.5884   58.6030 H       1  ZINC000545381384    0.0800
     57 H57        -9.7802   -4.1175   60.2662 H       1  ZINC000545381384    0.1000
     58 H58        -8.6981    1.6181   56.7319 H       1  ZINC000545381384    0.1300
     59 H59        -7.2611    3.2453   55.6205 H       1  ZINC000545381384    0.1300
     60 H60        -6.9224    3.1663   53.1873 H       1  ZINC000545381384    0.1400
     61 H61        -8.0125    1.4666   51.8284 H       1  ZINC000545381384    0.1400
@<TRIPOS>BOND
     1     1     2    1
     2     1    31    1
     3     1    32    1
     4     1    33    1
     5     2     3    1
     6     2    34    1
     7     2    35    1
     8     3     8    1
     9     3     4    1
    10     4     5    1
    11     4    36    1
    12     4    37    1
    13     5     6    1
    14     5    38    1
    15     5    39    1
    16     6    30   ar
    17     6     7   ar
    18     7     8    1
    19     7     9   ar
    20     8    40    1
    21     8    41    1
    22     9    10    1
    23     9    24   ar
    24    10    11    2
    25    10    12   am
    26    12    13    1
    27    12    42    1
    28    13    22    1
    29    13    14    2
    30    14    15    1
    31    14    43    1
    32    15    16    1
    33    15    21    2
    34    16    17    1
    35    16    44    1
    36    16    45    1
    37    17    18    1
    38    17    19    1
    39    17    20    1
    40    18    46    1
    41    18    47    1
    42    18    48    1
    43    19    49    1
    44    19    50    1
    45    19    51    1
    46    20    52    1
    47    20    53    1
    48    20    54    1
    49    21    22    1
    50    22    23    1
    51    23    55    1
    52    23    56    1
    53    23    57    1
    54    24    29   ar
    55    24    25   ar
    56    25    26   ar
    57    25    58    1
    58    26    27   ar
    59    26    59    1
    60    27    28   ar
    61    27    60    1
    62    28    29   ar
    63    28    61    1
    64    29    30   ar
@<TRIPOS>SUBSTRUCTURE
     1 ZINC000545381384        1 TEMP              0 ****  ****    0 ROOT


##########                                Name:    ZINC000548281822
##########                DOCK_Rotatable_Bonds:                   6
##########                         Heavy_Atoms:                  24
##########                    Molecular_Weight:             332.406
##########                DOCK_Rotatable_Bonds:                   6
##########                       Formal_Charge:        -5.58794e-08
##########                     HBond_Acceptors:                   8
##########                        HBond_Donors:                   2
##########                         Heavy_Atoms:                  24
##########                          Grid_Score:          -34.323334
##########                     Grid_vdw_energy:          -32.965916
##########                      Grid_es_energy:           -1.357416
##########           Internal_energy_repulsive:            6.876337

@<TRIPOS>MOLECULE
ZINC000548281822
 48 50 1 0 0
SMALL
USER_CHARGES


@<TRIPOS>ATOM
      1 C1         -2.4070    2.2694   50.7974 C.3     1  ZINC000548281822   -0.1700
      2 C2         -3.4062    2.1741   49.6426 C.3     1  ZINC000548281822    0.2600
      3 H3         -3.4055    3.1097   49.0834 H       1  ZINC000548281822    0.1400
      4 N4         -3.0226    1.0740   48.7545 N.am    1  ZINC000548281822   -0.7400
      5 C5         -2.4352    1.3373   47.5705 C.2     1  ZINC000548281822    0.7100
      6 O6         -2.2250    2.4880   47.2386 O.2     1  ZINC000548281822   -0.5700
      7 N7         -2.0809    0.3252   46.7541 N.am    1  ZINC000548281822   -0.7400
      8 C8         -1.4408    0.6114   45.4678 C.3     1  ZINC000548281822    0.1600
      9 H9         -1.7536    1.5946   45.1163 H       1  ZINC000548281822    0.1000
     10 C10         0.0811    0.5894   45.6378 C.3     1  ZINC000548281822   -0.1400
     11 C11         0.7461    1.1154   44.3611 C.3     1  ZINC000548281822    0.1100
     12 N12         0.1841    0.4059   43.2095 N.pl3   1  ZINC000548281822   -0.4600
     13 C13         0.6960    0.3227   41.9489 C.2     1  ZINC000548281822   -0.0500
     14 C14        -0.1611   -0.4322   41.2319 C.2     1  ZINC000548281822   -0.0300
     15 N15        -1.1697   -0.7982   42.0395 N.2     1  ZINC000548281822   -0.4900
     16 C16        -0.9712   -0.3004   43.2248 C.2     1  ZINC000548281822    0.2100
     17 C17        -1.8514   -0.4536   44.4430 C.3     1  ZINC000548281822   -0.0500
     18 C18        -4.7860    1.9184   50.1921 C.2     1  ZINC000548281822    0.1700
     19 N19        -5.3589    2.5492   51.1888 N.2     1  ZINC000548281822   -0.4600
     20 C20        -6.5739    1.9878   51.3219 C.2     1  ZINC000548281822    0.1900
     21 C21        -7.6241    2.3642   52.3350 C.3     1  ZINC000548281822    0.0200
     22 C22        -8.2849    1.0963   52.8796 C.3     1  ZINC000548281822   -0.1400
     23 C23        -6.9709    3.1332   53.4851 C.3     1  ZINC000548281822   -0.1400
     24 C24        -8.6828    3.2453   51.6688 C.3     1  ZINC000548281822   -0.1400
     25 N25        -6.6760    1.0615   50.4163 N.2     1  ZINC000548281822   -0.3700
     26 O26        -5.6617    1.0094   49.7529 O.3     1  ZINC000548281822    0.0800
     27 H27        -2.4077    1.3338   51.3567 H       1  ZINC000548281822    0.0700
     28 H28        -1.4091    2.4544   50.4000 H       1  ZINC000548281822    0.0900
     29 H29        -2.6924    3.0879   51.4582 H       1  ZINC000548281822    0.0800
     30 H30        -3.1915    0.1560   49.0187 H       1  ZINC000548281822    0.4000
     31 H31        -2.2497   -0.5928   47.0182 H       1  ZINC000548281822    0.4000
     32 H32         0.3617    1.2214   46.4803 H       1  ZINC000548281822    0.1000
     33 H33         0.4111   -0.4325   45.8246 H       1  ZINC000548281822    0.0800
     34 H34         0.5531    2.1835   44.2621 H       1  ZINC000548281822    0.0900
     35 H35         1.8208    0.9393   44.4097 H       1  ZINC000548281822    0.1000
     36 H36         1.6103    0.7744   41.5931 H       1  ZINC000548281822    0.1800
     37 H37        -0.0552   -0.6958   40.1900 H       1  ZINC000548281822    0.1700
     38 H38        -1.7167   -1.4469   44.8713 H       1  ZINC000548281822    0.0900
     39 H39        -2.8951   -0.3118   44.1626 H       1  ZINC000548281822    0.1000
     40 H40        -7.5307    0.4686   53.3542 H       1  ZINC000548281822    0.0600
     41 H41        -9.0446    1.3685   53.6124 H       1  ZINC000548281822    0.0700
     42 H42        -8.7503    0.5484   52.0602 H       1  ZINC000548281822    0.0700
     43 H43        -6.5002    4.0365   53.0972 H       1  ZINC000548281822    0.0600
     44 H44        -7.7305    3.4054   54.2179 H       1  ZINC000548281822    0.0700
     45 H45        -6.2167    2.5056   53.9598 H       1  ZINC000548281822    0.0600
     46 H46        -9.1483    2.6975   50.8494 H       1  ZINC000548281822    0.0700
     47 H47        -9.4425    3.5174   52.4016 H       1  ZINC000548281822    0.0700
     48 H48        -8.2121    4.1486   51.2808 H       1  ZINC000548281822    0.0600
@<TRIPOS>BOND
     1     1     2    1
     2     1    27    1
     3     1    28    1
     4     1    29    1
     5     2     3    1
     6     2     4    1
     7     2    18    1
     8     4     5   am
     9     4    30    1
    10     5     6    2
    11     5     7   am
    12     7     8    1
    13     7    31    1
    14     8     9    1
    15     8    17    1
    16     8    10    1
    17    10    11    1
    18    10    32    1
    19    10    33    1
    20    11    12    1
    21    11    34    1
    22    11    35    1
    23    12    16    1
    24    12    13    1
    25    13    14    2
    26    13    36    1
    27    14    15    1
    28    14    37    1
    29    15    16    2
    30    16    17    1
    31    17    38    1
    32    17    39    1
    33    18    26    1
    34    18    19    2
    35    19    20    1
    36    20    21    1
    37    20    25    2
    38    21    22    1
    39    21    23    1
    40    21    24    1
    41    22    40    1
    42    22    41    1
    43    22    42    1
    44    23    43    1
    45    23    44    1
    46    23    45    1
    47    24    46    1
    48    24    47    1
    49    24    48    1
    50    25    26    1
@<TRIPOS>SUBSTRUCTURE
     1 ZINC000548281822        1 TEMP              0 ****  ****    0 ROOT


##########                                Name:    ZINC000603906271
##########                DOCK_Rotatable_Bonds:                   8
##########                         Heavy_Atoms:                  29
##########                    Molecular_Weight:             391.473
##########                DOCK_Rotatable_Bonds:                   8
##########                       Formal_Charge:           0.0499998
##########                     HBond_Acceptors:                   7
##########                        HBond_Donors:                   3
##########                         Heavy_Atoms:                  29
##########                          Grid_Score:          -34.315701
##########                     Grid_vdw_energy:          -32.518387
##########                      Grid_es_energy:           -1.797313
##########           Internal_energy_repulsive:           24.479830

@<TRIPOS>MOLECULE
ZINC000603906271
 54 56 1 0 0
SMALL
USER_CHARGES


@<TRIPOS>ATOM
      1 C1         -7.4973    0.3548   67.4467 C.3     1  ZINC000603906271   -0.1600
      2 C2         -7.5769    1.1237   66.1264 C.3     1  ZINC000603906271    0.1300
      3 H3         -7.9619    2.1264   66.3125 H       1  ZINC000603906271    0.1200
      4 N4         -6.2403    1.2161   65.5337 N.am    1  ZINC000603906271   -0.7100
      5 C5         -5.4265    2.2388   65.8625 C.2     1  ZINC000603906271    0.5700
      6 O6         -5.8021    3.0855   66.6496 O.2     1  ZINC000603906271   -0.5300
      7 C7         -4.0770    2.3311   65.2658 C.ar    1  ZINC000603906271   -0.1400
      8 C8         -3.7061    1.4666   64.2347 C.ar    1  ZINC000603906271   -0.0800
      9 C9         -2.4454    1.5581   63.6818 C.ar    1  ZINC000603906271   -0.1200
     10 C10        -1.5494    2.5040   64.1477 C.ar    1  ZINC000603906271   -0.0400
     11 C11        -0.1739    2.5979   63.5394 C.3     1  ZINC000603906271   -0.0400
     12 C12         0.8258    3.0484   64.6064 C.3     1  ZINC000603906271   -0.1400
     13 C13         0.2395    1.2275   62.9993 C.3     1  ZINC000603906271   -0.1500
     14 C14        -0.1905    3.6133   62.3950 C.3     1  ZINC000603906271   -0.1400
     15 C15        -1.9110    3.3643   65.1693 C.ar    1  ZINC000603906271   -0.1300
     16 C16        -3.1704    3.2867   65.7271 C.ar    1  ZINC000603906271   -0.0500
     17 C17        -8.4980    0.4000   65.1783 C.2     1  ZINC000603906271    0.5100
     18 O18        -8.6017   -0.8071   65.2365 O.2     1  ZINC000603906271   -0.5100
     19 N19        -9.2064    1.0939   64.2657 N.am    1  ZINC000603906271   -0.6700
     20 C20       -10.0617    0.4218   63.3853 C.ar    1  ZINC000603906271    0.1300
     21 C21       -11.4315    0.6475   63.4393 C.ar    1  ZINC000603906271   -0.1200
     22 C22       -12.2793   -0.0144   62.5713 C.ar    1  ZINC000603906271   -0.1000
     23 C23       -11.7701   -0.9037   61.6465 C.ar    1  ZINC000603906271   -0.0900
     24 C24       -10.3972   -1.1367   61.5857 C.ar    1  ZINC000603906271    0.0000
     25 C25        -9.8481   -2.0928   60.5923 C.2     1  ZINC000603906271    0.2700
     26 N26        -9.0083   -3.0707   60.8525 N.2     1  ZINC000603906271   -0.3000
     27 N27        -8.7542   -3.7200   59.6335 N.pl3   1  ZINC000603906271   -0.4800
     28 C28        -9.4748   -3.0745   58.6989 C.2     1  ZINC000603906271    0.2700
     29 N29       -10.1304   -2.1063   59.2826 N.2     1  ZINC000603906271   -0.5300
     30 C30        -9.5418   -0.4655   62.4548 C.ar    1  ZINC000603906271   -0.0800
     31 H31        -7.1124   -0.6479   67.2606 H       1  ZINC000603906271    0.0700
     32 H32        -6.8312    0.8783   68.1325 H       1  ZINC000603906271    0.0800
     33 H33        -8.4918    0.2861   67.8876 H       1  ZINC000603906271    0.0700
     34 H34        -5.9411    0.5411   64.9046 H       1  ZINC000603906271    0.4100
     35 H35        -4.4042    0.7274   63.8706 H       1  ZINC000603906271    0.1300
     36 H36        -2.1571    0.8899   62.8839 H       1  ZINC000603906271    0.1300
     37 H37         0.8377    2.3251   65.4216 H       1  ZINC000603906271    0.0600
     38 H38         1.8209    3.1163   64.1664 H       1  ZINC000603906271    0.0600
     39 H39         0.5313    4.0248   64.9911 H       1  ZINC000603906271    0.0600
     40 H40        -0.4727    0.9065   62.2392 H       1  ZINC000603906271    0.0600
     41 H41         1.2345    1.2954   62.5594 H       1  ZINC000603906271    0.0600
     42 H42         0.2514    0.5041   63.8146 H       1  ZINC000603906271    0.0600
     43 H43        -0.4851    4.5896   62.7799 H       1  ZINC000603906271    0.0600
     44 H44         0.8044    3.6812   61.9551 H       1  ZINC000603906271    0.0600
     45 H45        -0.9028    3.2924   61.6348 H       1  ZINC000603906271    0.0600
     46 H46        -1.2071    4.1006   65.5281 H       1  ZINC000603906271    0.1400
     47 H47        -3.4515    3.9590   66.5243 H       1  ZINC000603906271    0.1400
     48 H48        -9.1235    2.0593   64.2191 H       1  ZINC000603906271    0.4200
     49 H49       -11.8349    1.3418   64.1615 H       1  ZINC000603906271    0.1300
     50 H50       -13.3435    0.1643   62.6171 H       1  ZINC000603906271    0.1400
     51 H51       -12.4356   -1.4195   60.9702 H       1  ZINC000603906271    0.1400
     52 H52        -8.1729   -4.4837   59.4931 H       1  ZINC000603906271    0.4400
     53 H53        -9.5094   -3.3176   57.6471 H       1  ZINC000603906271    0.2300
     54 H54        -8.4774   -0.6426   62.4114 H       1  ZINC000603906271    0.1500
@<TRIPOS>BOND
     1     1     2    1
     2     1    31    1
     3     1    32    1
     4     1    33    1
     5     2     3    1
     6     2     4    1
     7     2    17    1
     8     4     5   am
     9     4    34    1
    10     5     6    2
    11     5     7    1
    12     7    16   ar
    13     7     8   ar
    14     8     9   ar
    15     8    35    1
    16     9    10   ar
    17     9    36    1
    18    10    11    1
    19    10    15   ar
    20    11    12    1
    21    11    13    1
    22    11    14    1
    23    12    37    1
    24    12    38    1
    25    12    39    1
    26    13    40    1
    27    13    41    1
    28    13    42    1
    29    14    43    1
    30    14    44    1
    31    14    45    1
    32    15    16   ar
    33    15    46    1
    34    16    47    1
    35    17    18    2
    36    17    19   am
    37    19    20    1
    38    19    48    1
    39    20    30   ar
    40    20    21   ar
    41    21    22   ar
    42    21    49    1
    43    22    23   ar
    44    22    50    1
    45    23    24   ar
    46    23    51    1
    47    24    25    1
    48    24    30   ar
    49    25    29    1
    50    25    26    2
    51    26    27    1
    52    27    28    1
    53    27    52    1
    54    28    29    2
    55    28    53    1
    56    30    54    1
@<TRIPOS>SUBSTRUCTURE
     1 ZINC000603906271        1 TEMP              0 ****  ****    0 ROOT


##########                                Name:    ZINC000501032137
##########                DOCK_Rotatable_Bonds:                  10
##########                         Heavy_Atoms:                  25
##########                    Molecular_Weight:             407.307
##########                DOCK_Rotatable_Bonds:                  10
##########                       Formal_Charge:           0.0099998
##########                     HBond_Acceptors:                   5
##########                        HBond_Donors:                   1
##########                         Heavy_Atoms:                  25
##########                          Grid_Score:          -34.309433
##########                     Grid_vdw_energy:          -34.865177
##########                      Grid_es_energy:            0.555743
##########           Internal_energy_repulsive:           15.710281

@<TRIPOS>MOLECULE
ZINC000501032137
 48 50 1 0 0
SMALL
USER_CHARGES


@<TRIPOS>ATOM
      1 C1         -9.3669    1.8741   55.1475 C.3     1  ZINC000501032137   -0.1500
      2 C2         -9.8519    1.0383   56.3339 C.3     1  ZINC000501032137   -0.1200
      3 C3         -8.6618    0.6815   57.2268 C.3     1  ZINC000501032137    0.0600
      4 O4         -9.1087   -0.1319   58.3134 O.3     1  ZINC000501032137   -0.3800
      5 C5         -9.9399    0.5556   59.2506 C.3     1  ZINC000501032137    0.0500
      6 C6         -9.9350   -0.1954   60.5836 C.3     1  ZINC000501032137    0.1600
      7 H7         -9.0177   -0.7780   60.6690 H       1  ZINC000501032137    0.1000
      8 C8        -11.1423   -1.1332   60.6450 C.3     1  ZINC000501032137   -0.0900
      9 C9        -10.8548   -2.3754   59.8417 C.ar    1  ZINC000501032137   -0.0600
     10 C10        -9.8213   -3.2147   60.2131 C.ar    1  ZINC000501032137   -0.0900
     11 C11        -9.5571   -4.3545   59.4764 C.ar    1  ZINC000501032137   -0.1100
     12 C12       -10.3263   -4.6551   58.3684 C.ar    1  ZINC000501032137   -0.0900
     13 C13       -11.3609   -3.8153   57.9963 C.ar    1  ZINC000501032137   -0.0800
     14 Br14      -12.4138   -4.2261   56.4801 Br      1  ZINC000501032137   -0.0600
     15 C15       -11.6284   -2.6783   58.7368 C.ar    1  ZINC000501032137   -0.0800
     16 N16       -10.0071    0.7663   61.6863 N.am    1  ZINC000501032137   -0.7100
     17 C17        -9.4726    0.4589   62.8847 C.2     1  ZINC000501032137    0.6100
     18 O18        -8.9291   -0.6163   63.0502 O.2     1  ZINC000501032137   -0.5200
     19 C19        -9.5468    1.4260   63.9949 C.2     1  ZINC000501032137   -0.0800
     20 C20        -9.0734    1.2449   65.2579 C.2     1  ZINC000501032137    0.0800
     21 C21        -8.3749    0.0187   65.7868 C.3     1  ZINC000501032137   -0.0800
     22 C22        -7.1733    0.2329   66.7094 C.3     1  ZINC000501032137   -0.1700
     23 C23        -8.4979   -0.2740   67.2835 C.3     1  ZINC000501032137   -0.1500
     24 O24        -9.3467    2.3667   65.9429 O.3     1  ZINC000501032137   -0.2000
     25 C25        -9.9741    3.2185   65.1195 C.2     1  ZINC000501032137    0.1800
     26 N26       -10.0960    2.6699   63.9479 N.2     1  ZINC000501032137   -0.4600
     27 H27        -8.9006    2.7886   55.5139 H       1  ZINC000501032137    0.0600
     28 H28        -8.6400    1.3008   54.5723 H       1  ZINC000501032137    0.0600
     29 H29       -10.2147    2.1282   54.5114 H       1  ZINC000501032137    0.0600
     30 H30       -10.5789    1.6116   56.9091 H       1  ZINC000501032137    0.0700
     31 H31       -10.3183    0.1237   55.9675 H       1  ZINC000501032137    0.0700
     32 H32        -7.9213    0.1342   56.6437 H       1  ZINC000501032137    0.0500
     33 H33        -8.2139    1.5953   57.6173 H       1  ZINC000501032137    0.0500
     34 H34        -9.5591    1.5658   59.4014 H       1  ZINC000501032137    0.0700
     35 H35       -10.9583    0.6050   58.8652 H       1  ZINC000501032137    0.0600
     36 H36       -11.3366   -1.4079   61.6818 H       1  ZINC000501032137    0.0900
     37 H37       -12.0160   -0.6282   60.2331 H       1  ZINC000501032137    0.0800
     38 H38        -9.2197   -2.9799   61.0787 H       1  ZINC000501032137    0.1200
     39 H39        -8.7492   -5.0099   59.7667 H       1  ZINC000501032137    0.1300
     40 H40       -10.1196   -5.5453   57.7928 H       1  ZINC000501032137    0.1300
     41 H41       -12.4362   -2.0226   58.4469 H       1  ZINC000501032137    0.1200
     42 H42       -10.4396    1.6244   61.5539 H       1  ZINC000501032137    0.4100
     43 H43        -8.3433   -0.8337   65.1082 H       1  ZINC000501032137    0.1500
     44 H44        -6.3507   -0.4787   66.6377 H       1  ZINC000501032137    0.1100
     45 H45        -6.8880    1.2606   66.9338 H       1  ZINC000501032137    0.1000
     46 H46        -9.0839    0.4203   67.8856 H       1  ZINC000501032137    0.1000
     47 H47        -8.5466   -1.3190   67.5896 H       1  ZINC000501032137    0.1100
     48 H48       -10.3203    4.2060   65.3867 H       1  ZINC000501032137    0.2500
@<TRIPOS>BOND
     1     1     2    1
     2     1    27    1
     3     1    28    1
     4     1    29    1
     5     2     3    1
     6     2    30    1
     7     2    31    1
     8     3     4    1
     9     3    32    1
    10     3    33    1
    11     4     5    1
    12     5     6    1
    13     5    34    1
    14     5    35    1
    15     6     7    1
    16     6     8    1
    17     6    16    1
    18     8     9    1
    19     8    36    1
    20     8    37    1
    21     9    15   ar
    22     9    10   ar
    23    10    11   ar
    24    10    38    1
    25    11    12   ar
    26    11    39    1
    27    12    13   ar
    28    12    40    1
    29    13    14    1
    30    13    15   ar
    31    15    41    1
    32    16    17   am
    33    16    42    1
    34    17    18    2
    35    17    19    1
    36    19    26    1
    37    19    20    2
    38    20    21    1
    39    20    24    1
    40    21    23    1
    41    21    22    1
    42    21    43    1
    43    22    23    1
    44    22    44    1
    45    22    45    1
    46    23    46    1
    47    23    47    1
    48    24    25    1
    49    25    26    2
    50    25    48    1
@<TRIPOS>SUBSTRUCTURE
     1 ZINC000501032137        1 TEMP              0 ****  ****    0 ROOT


##########                                Name:    ZINC000523153175
##########                DOCK_Rotatable_Bonds:                   9
##########                         Heavy_Atoms:                  30
##########                    Molecular_Weight:             413.603
##########                DOCK_Rotatable_Bonds:                   9
##########                       Formal_Charge:           0.0499987
##########                     HBond_Acceptors:                   5
##########                        HBond_Donors:                   1
##########                         Heavy_Atoms:                  30
##########                          Grid_Score:          -34.302292
##########                     Grid_vdw_energy:          -33.227299
##########                      Grid_es_energy:           -1.074992
##########           Internal_energy_repulsive:           34.882408

@<TRIPOS>MOLECULE
ZINC000523153175
 69 71 1 0 0
SMALL
USER_CHARGES


@<TRIPOS>ATOM
      1 C1         -7.9250    3.9795   52.2136 C.3     1  ZINC000523153175   -0.1500
      2 C2         -8.4726    2.5860   52.5289 C.3     1  ZINC000523153175   -0.0600
      3 C3         -7.4395    1.5300   52.1310 C.3     1  ZINC000523153175   -0.1400
      4 C4         -8.7564    2.4801   54.0051 C.ar    1  ZINC000523153175   -0.0800
      5 C5         -7.7233    2.2421   54.8922 C.ar    1  ZINC000523153175   -0.1100
      6 C6         -7.9836    2.1449   56.2463 C.ar    1  ZINC000523153175   -0.1100
      7 C7         -9.2771    2.2861   56.7134 C.ar    1  ZINC000523153175   -0.0800
      8 C8         -9.5609    2.1796   58.1896 C.3     1  ZINC000523153175   -0.0300
      9 H9         -8.6451    1.9138   58.7174 H       1  ZINC000523153175    0.0800
     10 C10       -10.0766    3.5236   58.7080 C.3     1  ZINC000523153175   -0.1500
     11 C11       -10.6190    1.1007   58.4289 C.3     1  ZINC000523153175   -0.1300
     12 C12        -9.9541   -0.2503   58.4889 C.2     1  ZINC000523153175    0.5200
     13 O13        -8.7453   -0.3342   58.4370 O.2     1  ZINC000523153175   -0.5300
     14 N14       -10.7027   -1.3656   58.6001 N.am    1  ZINC000523153175   -0.6200
     15 C15       -12.1704   -1.2870   58.6566 C.3     1  ZINC000523153175    0.1100
     16 C16       -12.7499   -2.2486   57.6138 C.3     1  ZINC000523153175    0.0400
     17 N17       -12.1910   -3.5905   57.8258 N.3     1  ZINC000523153175   -0.5100
     18 C18       -12.8484   -4.5776   56.9587 C.3     1  ZINC000523153175    0.0600
     19 H19       -12.2186   -5.4631   56.8737 H       1  ZINC000523153175    0.1100
     20 C20       -14.1986   -4.9681   57.5629 C.3     1  ZINC000523153175   -0.1800
     21 C21       -13.0634   -3.9809   55.5916 C.2     1  ZINC000523153175    0.5200
     22 O22       -14.1893   -3.7882   55.1843 O.2     1  ZINC000523153175   -0.5200
     23 N23       -12.0043   -3.6616   54.8216 N.am    1  ZINC000523153175   -0.7200
     24 C24       -12.2133   -3.0801   53.4933 C.3     1  ZINC000523153175    0.1400
     25 C25       -12.2738   -1.5419   53.5934 C.3     1  ZINC000523153175   -0.1300
     26 C26       -10.8303   -1.0829   53.2700 C.3     1  ZINC000523153175   -0.1300
     27 C27       -10.4006   -2.0677   52.1543 C.3     1  ZINC000523153175   -0.1300
     28 C28       -11.0222   -3.4144   52.5782 C.3     1  ZINC000523153175   -0.1300
     29 C29       -10.7359   -3.5996   57.6248 C.3     1  ZINC000523153175    0.0400
     30 C30       -10.0741   -2.6938   58.6619 C.3     1  ZINC000523153175    0.1200
     31 C31       -10.3099    2.5254   55.8264 C.ar    1  ZINC000523153175   -0.1100
     32 C32       -10.0490    2.6265   54.4727 C.ar    1  ZINC000523153175   -0.1200
     33 H33        -7.7197    4.0562   51.1458 H       1  ZINC000523153175    0.0600
     34 H34        -8.6610    4.7318   52.4970 H       1  ZINC000523153175    0.0600
     35 H35        -7.0041    4.1432   52.7733 H       1  ZINC000523153175    0.0600
     36 H36        -9.3935    2.4224   51.9691 H       1  ZINC000523153175    0.0800
     37 H37        -6.5186    1.6937   52.6908 H       1  ZINC000523153175    0.0600
     38 H38        -7.8295    0.5373   52.3557 H       1  ZINC000523153175    0.0600
     39 H39        -7.2342    1.6067   51.0633 H       1  ZINC000523153175    0.0600
     40 H40        -6.7128    2.1318   54.5273 H       1  ZINC000523153175    0.1200
     41 H41        -7.1766    1.9583   56.9394 H       1  ZINC000523153175    0.1200
     42 H42       -10.2820    3.4465   59.7757 H       1  ZINC000523153175    0.0800
     43 H43        -9.3228    4.2922   58.5374 H       1  ZINC000523153175    0.0600
     44 H44       -10.9925    3.7893   58.1801 H       1  ZINC000523153175    0.0500
     45 H45       -11.1305    1.2960   59.3714 H       1  ZINC000523153175    0.0900
     46 H46       -11.3422    1.1138   57.6135 H       1  ZINC000523153175    0.0900
     47 H47       -12.5143   -1.5739   59.6504 H       1  ZINC000523153175    0.0800
     48 H48       -12.4914   -0.2693   58.4346 H       1  ZINC000523153175    0.0900
     49 H49       -13.8344   -2.2859   57.7163 H       1  ZINC000523153175    0.0900
     50 H50       -12.4905   -1.9005   56.6140 H       1  ZINC000523153175    0.0400
     51 H51       -14.8285   -4.0825   57.6479 H       1  ZINC000523153175    0.0700
     52 H52       -14.6864   -5.7003   56.9196 H       1  ZINC000523153175    0.0700
     53 H53       -14.0431   -5.3996   58.5518 H       1  ZINC000523153175    0.0700
     54 H54       -11.1038   -3.8169   55.1469 H       1  ZINC000523153175    0.4000
     55 H55       -13.1367   -3.4634   53.0592 H       1  ZINC000523153175    0.0900
     56 H56       -12.9750   -1.1393   52.8624 H       1  ZINC000523153175    0.0700
     57 H57       -12.5546   -1.2360   54.6014 H       1  ZINC000523153175    0.0700
     58 H58       -10.8244   -0.0567   52.9028 H       1  ZINC000523153175    0.0700
     59 H59       -10.1874   -1.1853   54.1442 H       1  ZINC000523153175    0.0700
     60 H60       -10.7992   -1.7500   51.1908 H       1  ZINC000523153175    0.0700
     61 H61        -9.3142   -2.1455   52.1118 H       1  ZINC000523153175    0.0700
     62 H62       -10.2887   -4.0093   53.1224 H       1  ZINC000523153175    0.0700
     63 H63       -11.3678   -3.9592   51.6996 H       1  ZINC000523153175    0.0800
     64 H64       -10.3598   -4.6167   57.7354 H       1  ZINC000523153175    0.1000
     65 H65       -10.5045   -3.2326   56.6249 H       1  ZINC000523153175    0.0400
     66 H66        -9.0092   -2.6070   58.4461 H       1  ZINC000523153175    0.1000
     67 H67       -10.2156   -3.1133   59.6580 H       1  ZINC000523153175    0.0800
     68 H68       -11.3204    2.6361   56.1914 H       1  ZINC000523153175    0.1200
     69 H69       -10.8560    2.8135   53.7797 H       1  ZINC000523153175    0.1200
@<TRIPOS>BOND
     1     1     2    1
     2     1    33    1
     3     1    34    1
     4     1    35    1
     5     2     3    1
     6     2     4    1
     7     2    36    1
     8     3    37    1
     9     3    38    1
    10     3    39    1
    11     4    32   ar
    12     4     5   ar
    13     5     6   ar
    14     5    40    1
    15     6     7   ar
    16     6    41    1
    17     7     8    1
    18     7    31   ar
    19     8     9    1
    20     8    10    1
    21     8    11    1
    22    10    42    1
    23    10    43    1
    24    10    44    1
    25    11    12    1
    26    11    45    1
    27    11    46    1
    28    12    13    2
    29    12    14   am
    30    14    30    1
    31    14    15    1
    32    15    16    1
    33    15    47    1
    34    15    48    1
    35    16    17    1
    36    16    49    1
    37    16    50    1
    38    17    18    1
    39    17    29    1
    40    18    19    1
    41    18    20    1
    42    18    21    1
    43    20    51    1
    44    20    52    1
    45    20    53    1
    46    21    22    2
    47    21    23   am
    48    23    24    1
    49    23    54    1
    50    24    28    1
    51    24    25    1
    52    24    55    1
    53    25    26    1
    54    25    56    1
    55    25    57    1
    56    26    27    1
    57    26    58    1
    58    26    59    1
    59    27    28    1
    60    27    60    1
    61    27    61    1
    62    28    62    1
    63    28    63    1
    64    29    30    1
    65    29    64    1
    66    29    65    1
    67    30    66    1
    68    30    67    1
    69    31    32   ar
    70    31    68    1
    71    32    69    1
@<TRIPOS>SUBSTRUCTURE
     1 ZINC000523153175        1 TEMP              0 ****  ****    0 ROOT


##########                                Name:    ZINC000301324012
##########                DOCK_Rotatable_Bonds:                   7
##########                         Heavy_Atoms:                  28
##########                    Molecular_Weight:               415.9
##########                DOCK_Rotatable_Bonds:                   7
##########                       Formal_Charge:          -0.0100002
##########                     HBond_Acceptors:                   8
##########                        HBond_Donors:                   2
##########                         Heavy_Atoms:                  28
##########                          Grid_Score:          -34.298679
##########                     Grid_vdw_energy:          -34.137398
##########                      Grid_es_energy:           -0.161282
##########           Internal_energy_repulsive:           11.566725

@<TRIPOS>MOLECULE
ZINC000301324012
 46 48 1 0 0
SMALL
USER_CHARGES


@<TRIPOS>ATOM
      1 C1         -8.3808    3.4686   50.5807 C.3     1  ZINC000301324012   -0.1600
      2 C2         -7.8280    2.7506   51.8136 C.3     1  ZINC000301324012    0.2000
      3 H3         -7.8873    3.4134   52.6769 H       1  ZINC000301324012    0.1100
      4 N4         -8.6168    1.5430   52.0700 N.am    1  ZINC000301324012   -0.7100
      5 C5         -9.8368    1.6420   52.6340 C.2     1  ZINC000301324012    0.5500
      6 O6        -10.2835    2.7335   52.9285 O.2     1  ZINC000301324012   -0.5300
      7 C7        -10.6319    0.4231   52.8943 C.ar    1  ZINC000301324012   -0.0700
      8 C8        -11.9801    0.5262   53.2404 C.ar    1  ZINC000301324012   -0.1100
      9 C9        -12.7165   -0.6151   53.4815 C.ar    1  ZINC000301324012   -0.0200
     10 C10       -12.1213   -1.8601   53.3814 C.ar    1  ZINC000301324012   -0.6600
     11 S11       -13.0690   -3.3129   53.6915 S.o2    1  ZINC000301324012    2.6900
     12 O12       -14.3016   -3.1419   53.0052 O.2     1  ZINC000301324012   -0.9400
     13 O13       -12.2001   -4.4144   53.4659 O.2     1  ZINC000301324012   -0.9400
     14 N14       -13.4313   -3.3263   55.3072 N.am    1  ZINC000301324012   -1.0500
     15 C15       -12.4033   -3.3448   56.2537 C.ar    1  ZINC000301324012    0.1600
     16 C16       -11.6496   -2.2018   56.4848 C.ar    1  ZINC000301324012   -0.1600
     17 C17       -10.6340   -2.2232   57.4212 C.ar    1  ZINC000301324012   -0.0800
     18 C18       -10.3670   -3.3811   58.1279 C.ar    1  ZINC000301324012   -0.1200
     19 C19       -11.1153   -4.5220   57.9008 C.ar    1  ZINC000301324012   -0.0900
     20 C20       -12.1366   -4.5060   56.9702 C.ar    1  ZINC000301324012   -0.0600
     21 Cl21      -13.0756   -5.9380   56.6855 Cl      1  ZINC000301324012   -0.0600
     22 C22       -10.7854   -1.9694   53.0382 C.ar    1  ZINC000301324012   -0.0200
     23 C23       -10.0391   -0.8362   52.7894 C.ar    1  ZINC000301324012   -0.0800
     24 C24        -6.3904    2.3697   51.5705 C.ar    1  ZINC000301324012    0.1200
     25 C25        -6.0971    1.1669   50.9569 C.ar    1  ZINC000301324012   -0.1600
     26 C26        -4.7709    0.8259   50.7374 C.ar    1  ZINC000301324012   -0.0700
     27 C27        -3.7858    1.7120   51.1452 C.ar    1  ZINC000301324012   -0.1700
     28 C28        -4.1554    2.8972   51.7527 C.ar    1  ZINC000301324012    0.1100
     29 N29        -5.4271    3.1908   51.9408 N.ar    1  ZINC000301324012   -0.4900
     30 H30        -7.7941    4.3672   50.3900 H       1  ZINC000301324012    0.0700
     31 H31        -8.3217    2.8059   49.7174 H       1  ZINC000301324012    0.0600
     32 H32        -9.4207    3.7442   50.7566 H       1  ZINC000301324012    0.0700
     33 H33        -8.2607    0.6721   51.8340 H       1  ZINC000301324012    0.4100
     34 H34       -12.4457    1.4976   53.3196 H       1  ZINC000301324012    0.1400
     35 H35       -13.7599   -0.5367   53.7494 H       1  ZINC000301324012    0.1500
     36 H36       -14.3571   -3.3215   55.5967 H       1  ZINC000301324012    0.4300
     37 H37       -11.8569   -1.2969   55.9329 H       1  ZINC000301324012    0.1700
     38 H38       -10.0476   -1.3343   57.6012 H       1  ZINC000301324012    0.1400
     39 H39        -9.5719   -3.3950   58.8587 H       1  ZINC000301324012    0.1400
     40 H40       -10.9040   -5.4248   58.4545 H       1  ZINC000301324012    0.1400
     41 H41       -10.3269   -2.9443   52.9613 H       1  ZINC000301324012    0.1500
     42 H42        -8.9964   -0.9229   52.5212 H       1  ZINC000301324012    0.1500
     43 H43        -6.8905    0.5003   50.6526 H       1  ZINC000301324012    0.1400
     44 H44        -4.5118   -0.1078   50.2605 H       1  ZINC000301324012    0.1400
     45 H45        -2.7426    1.4788   50.9905 H       1  ZINC000301324012    0.1400
     46 H46        -3.3940    3.5926   52.0736 H       1  ZINC000301324012    0.1600
@<TRIPOS>BOND
     1     1     2    1
     2     1    30    1
     3     1    31    1
     4     1    32    1
     5     2     3    1
     6     2     4    1
     7     2    24    1
     8     4     5   am
     9     4    33    1
    10     5     6    2
    11     5     7    1
    12     7    23   ar
    13     7     8   ar
    14     8     9   ar
    15     8    34    1
    16     9    10   ar
    17     9    35    1
    18    10    11    1
    19    10    22   ar
    20    11    12    2
    21    11    13    2
    22    11    14   am
    23    14    15    1
    24    14    36    1
    25    15    20   ar
    26    15    16   ar
    27    16    17   ar
    28    16    37    1
    29    17    18   ar
    30    17    38    1
    31    18    19   ar
    32    18    39    1
    33    19    20   ar
    34    19    40    1
    35    20    21    1
    36    22    23   ar
    37    22    41    1
    38    23    42    1
    39    24    29   ar
    40    24    25   ar
    41    25    26   ar
    42    25    43    1
    43    26    27   ar
    44    26    44    1
    45    27    28   ar
    46    27    45    1
    47    28    29   ar
    48    28    46    1
@<TRIPOS>SUBSTRUCTURE
     1 ZINC000301324012        1 TEMP              0 ****  ****    0 ROOT


##########                                Name:    ZINC000745364361
##########                DOCK_Rotatable_Bonds:                   8
##########                         Heavy_Atoms:                  29
##########                    Molecular_Weight:             398.434
##########                DOCK_Rotatable_Bonds:                   8
##########                       Formal_Charge:          0.00999923
##########                     HBond_Acceptors:                   7
##########                        HBond_Donors:                   1
##########                         Heavy_Atoms:                  29
##########                          Grid_Score:          -34.277348
##########                     Grid_vdw_energy:          -33.909904
##########                      Grid_es_energy:           -0.367445
##########           Internal_energy_repulsive:           17.330322

@<TRIPOS>MOLECULE
ZINC000745364361
 52 54 1 0 0
SMALL
USER_CHARGES


@<TRIPOS>ATOM
      1 C1        -10.9727   -0.1673   56.7011 C.3     1  ZINC000745364361   -0.1700
      2 C2        -10.8111   -1.4026   57.5893 C.3     1  ZINC000745364361    0.0700
      3 H3         -9.9167   -1.9497   57.2915 H       1  ZINC000745364361    0.1100
      4 O4        -11.9740   -2.2597   57.4428 O.3     1  ZINC000745364361   -0.3200
      5 C5        -11.7647   -3.5846   57.4927 C.2     1  ZINC000745364361    0.4700
      6 O6        -10.8016   -4.0224   58.0763 O.2     1  ZINC000745364361   -0.4900
      7 C7        -12.7311   -4.5259   56.8211 C.3     1  ZINC000745364361   -0.0400
      8 H8        -12.2920   -5.5223   56.7704 H       1  ZINC000745364361    0.1200
      9 C9        -14.0311   -4.5819   57.6260 C.3     1  ZINC000745364361   -0.1400
     10 C10       -13.0242   -4.0345   55.4270 C.ar    1  ZINC000745364361   -0.0500
     11 C11       -14.3244   -3.7504   55.0536 C.ar    1  ZINC000745364361   -0.1000
     12 C12       -14.5948   -3.2995   53.7749 C.ar    1  ZINC000745364361   -0.0900
     13 C13       -13.5653   -3.1321   52.8686 C.ar    1  ZINC000745364361   -0.1500
     14 C14       -12.2622   -3.4159   53.2417 C.ar    1  ZINC000745364361    0.1000
     15 F15       -11.2548   -3.2528   52.3564 F       1  ZINC000745364361   -0.1400
     16 C16       -11.9921   -3.8625   54.5239 C.ar    1  ZINC000745364361   -0.1400
     17 C17       -10.6816   -0.9733   59.0281 C.2     1  ZINC000745364361    0.5200
     18 O18       -11.6624   -0.6126   59.6439 O.2     1  ZINC000745364361   -0.5000
     19 N19        -9.4761   -0.9900   59.6304 N.am    1  ZINC000745364361   -0.6700
     20 C20        -9.3558   -0.5909   60.9677 C.ar    1  ZINC000745364361    0.1200
     21 C21        -9.7653    0.6789   61.3529 C.ar    1  ZINC000745364361   -0.1100
     22 C22        -9.6467    1.0722   62.6708 C.ar    1  ZINC000745364361   -0.1400
     23 C23        -9.1184    0.1980   63.6115 C.ar    1  ZINC000745364361    0.1500
     24 N24        -8.9977    0.5972   64.9487 N.am    1  ZINC000745364361   -0.5600
     25 C25        -7.7775    0.4479   65.7505 C.3     1  ZINC000745364361    0.0900
     26 C26        -7.9617    1.3904   66.9605 C.3     1  ZINC000745364361   -0.1300
     27 C27        -9.5022    1.4752   67.0626 C.3     1  ZINC000745364361   -0.1500
     28 C28        -9.9826    1.1716   65.6606 C.2     1  ZINC000745364361    0.5200
     29 O29       -11.0967    1.4058   65.2420 O.2     1  ZINC000745364361   -0.5100
     30 C30        -8.7102   -1.0724   63.2266 C.ar    1  ZINC000745364361   -0.1400
     31 C31        -8.8324   -1.4670   61.9094 C.ar    1  ZINC000745364361   -0.0900
     32 H32       -11.0664   -0.4779   55.6605 H       1  ZINC000745364361    0.0800
     33 H33       -11.8672    0.3798   56.9989 H       1  ZINC000745364361    0.0800
     34 H34       -10.0998    0.4759   56.8111 H       1  ZINC000745364361    0.0800
     35 H35       -14.4702   -3.5855   57.6767 H       1  ZINC000745364361    0.0700
     36 H36       -14.7301   -5.2627   57.1403 H       1  ZINC000745364361    0.0800
     37 H37       -13.8191   -4.9373   58.6344 H       1  ZINC000745364361    0.0800
     38 H38       -15.1297   -3.8813   55.7612 H       1  ZINC000745364361    0.1300
     39 H39       -15.6112   -3.0782   53.4842 H       1  ZINC000745364361    0.1400
     40 H40       -13.7768   -2.7806   51.8696 H       1  ZINC000745364361    0.1400
     41 H41       -10.9762   -4.0837   54.8161 H       1  ZINC000745364361    0.1400
     42 H42        -8.6918   -1.2784   59.1380 H       1  ZINC000745364361    0.4100
     43 H43       -10.1762    1.3589   60.6213 H       1  ZINC000745364361    0.1300
     44 H44        -9.9645    2.0600   62.9702 H       1  ZINC000745364361    0.1600
     45 H45        -7.6719   -0.5831   66.0882 H       1  ZINC000745364361    0.0800
     46 H46        -6.9052    0.7464   65.1692 H       1  ZINC000745364361    0.0900
     47 H47        -7.5343    0.9542   67.8634 H       1  ZINC000745364361    0.1000
     48 H48        -7.5294    2.3709   66.7606 H       1  ZINC000745364361    0.0900
     49 H49        -9.8792    0.7346   67.7679 H       1  ZINC000745364361    0.1100
     50 H50        -9.8103    2.4776   67.3597 H       1  ZINC000745364361    0.1100
     51 H51        -8.2996   -1.7525   63.9582 H       1  ZINC000745364361    0.1300
     52 H52        -8.5148   -2.4550   61.6101 H       1  ZINC000745364361    0.1400
@<TRIPOS>BOND
     1     1     2    1
     2     1    32    1
     3     1    33    1
     4     1    34    1
     5     2     3    1
     6     2     4    1
     7     2    17    1
     8     4     5    1
     9     5     6    2
    10     5     7    1
    11     7     8    1
    12     7     9    1
    13     7    10    1
    14     9    35    1
    15     9    36    1
    16     9    37    1
    17    10    16   ar
    18    10    11   ar
    19    11    12   ar
    20    11    38    1
    21    12    13   ar
    22    12    39    1
    23    13    14   ar
    24    13    40    1
    25    14    15    1
    26    14    16   ar
    27    16    41    1
    28    17    18    2
    29    17    19   am
    30    19    20    1
    31    19    42    1
    32    20    31   ar
    33    20    21   ar
    34    21    22   ar
    35    21    43    1
    36    22    23   ar
    37    22    44    1
    38    23    24    1
    39    23    30   ar
    40    24    28   am
    41    24    25    1
    42    25    26    1
    43    25    45    1
    44    25    46    1
    45    26    27    1
    46    26    47    1
    47    26    48    1
    48    27    28    1
    49    27    49    1
    50    27    50    1
    51    28    29    2
    52    30    31   ar
    53    30    51    1
    54    31    52    1
@<TRIPOS>SUBSTRUCTURE
     1 ZINC000745364361        1 TEMP              0 ****  ****    0 ROOT


##########                                Name:    ZINC001119787528
##########                DOCK_Rotatable_Bonds:                   6
##########                         Heavy_Atoms:                  27
##########                    Molecular_Weight:             362.434
##########                DOCK_Rotatable_Bonds:                   6
##########                       Formal_Charge:          -0.0199998
##########                     HBond_Acceptors:                   7
##########                        HBond_Donors:                   1
##########                         Heavy_Atoms:                  27
##########                          Grid_Score:          -34.273891
##########                     Grid_vdw_energy:          -33.826965
##########                      Grid_es_energy:           -0.446926
##########           Internal_energy_repulsive:           11.718180

@<TRIPOS>MOLECULE
ZINC001119787528
 49 52 1 0 0
SMALL
USER_CHARGES


@<TRIPOS>ATOM
      1 C1        -15.4837   -0.6124   51.6125 C.3     1  ZINC001119787528   -0.1700
      2 C2        -15.1134   -2.0956   51.6761 C.3     1  ZINC001119787528    0.1000
      3 N3        -13.7252   -2.2334   52.1237 N.pl3   1  ZINC001119787528   -0.4500
      4 C4        -12.6295   -1.7245   51.5146 C.2     1  ZINC001119787528    0.1800
      5 N5        -11.5709   -2.0569   52.2066 N.2     1  ZINC001119787528   -0.4800
      6 C6        -11.9493   -2.7781   53.2641 C.2     1  ZINC001119787528   -0.0200
      7 C7        -13.2944   -2.8933   53.2347 C.2     1  ZINC001119787528   -0.0100
      8 C8        -14.1179   -3.6273   54.2602 C.3     1  ZINC001119787528   -0.0600
      9 C9        -13.1993   -4.5683   55.0505 C.3     1  ZINC001119787528    0.1400
     10 N10       -11.9715   -3.8468   55.4167 N.am    1  ZINC001119787528   -0.6200
     11 C11       -11.6692   -3.6101   56.7086 C.2     1  ZINC001119787528    0.7200
     12 O12       -12.4156   -3.9948   57.5878 O.2     1  ZINC001119787528   -0.5600
     13 N13       -10.5394   -2.9472   57.0260 N.am    1  ZINC001119787528   -0.6600
     14 C14       -10.2277   -2.7031   58.3584 C.ar    1  ZINC001119787528    0.4200
     15 C15        -9.4206   -3.5900   59.0713 C.ar    1  ZINC001119787528   -0.2500
     16 C16        -9.1389   -3.3029   60.3934 C.ar    1  ZINC001119787528    0.1600
     17 N17        -9.6404   -2.2035   60.9369 N.ar    1  ZINC001119787528   -0.5300
     18 C18       -10.3999   -1.3856   60.2360 C.ar    1  ZINC001119787528    0.3500
     19 C19       -10.9473   -0.1469   60.8972 C.3     1  ZINC001119787528   -0.0100
     20 C20       -12.1531   -0.5105   61.7249 C.ar    1  ZINC001119787528   -0.0800
     21 C21       -12.5449    0.3046   62.7704 C.ar    1  ZINC001119787528   -0.1000
     22 C22       -13.6509   -0.0289   63.5297 C.ar    1  ZINC001119787528   -0.1200
     23 C23       -14.3652   -1.1772   63.2434 C.ar    1  ZINC001119787528   -0.1200
     24 C24       -13.9738   -1.9918   62.1973 C.ar    1  ZINC001119787528   -0.1200
     25 C25       -12.8704   -1.6561   61.4353 C.ar    1  ZINC001119787528   -0.1000
     26 N26       -10.6894   -1.6181   58.9721 N.ar    1  ZINC001119787528   -0.5500
     27 C27       -11.0792   -3.3849   54.3393 C.3     1  ZINC001119787528    0.2000
     28 H28       -16.5166   -0.5098   51.2795 H       1  ZINC001119787528    0.0800
     29 H29       -15.3751   -0.1681   52.6019 H       1  ZINC001119787528    0.0600
     30 H30       -14.8234   -0.1028   50.9109 H       1  ZINC001119787528    0.0600
     31 H31       -15.7737   -2.6052   52.3777 H       1  ZINC001119787528    0.0900
     32 H32       -15.2219   -2.5398   50.6866 H       1  ZINC001119787528    0.1000
     33 H33       -12.6291   -1.1402   50.6062 H       1  ZINC001119787528    0.2100
     34 H34       -14.5786   -2.9105   54.9399 H       1  ZINC001119787528    0.0800
     35 H35       -14.8921   -4.2083   53.7592 H       1  ZINC001119787528    0.0900
     36 H36       -13.7095   -4.9014   55.9543 H       1  ZINC001119787528    0.1100
     37 H37       -12.9451   -5.4312   54.4352 H       1  ZINC001119787528    0.0800
     38 H38        -9.9440   -2.6403   56.3245 H       1  ZINC001119787528    0.4200
     39 H39        -9.0261   -4.4791   58.6017 H       1  ZINC001119787528    0.1800
     40 H40        -8.5179   -3.9668   60.9767 H       1  ZINC001119787528    0.1700
     41 H41       -10.1832    0.2894   61.5405 H       1  ZINC001119787528    0.1000
     42 H42       -11.2353    0.5755   60.1336 H       1  ZINC001119787528    0.1000
     43 H43       -11.9868    1.2017   62.9942 H       1  ZINC001119787528    0.1300
     44 H44       -13.9566    0.6075   64.3470 H       1  ZINC001119787528    0.1200
     45 H45       -15.2287   -1.4381   63.8370 H       1  ZINC001119787528    0.1200
     46 H46       -14.5316   -2.8891   61.9738 H       1  ZINC001119787528    0.1200
     47 H47       -12.5647   -2.2925   60.6181 H       1  ZINC001119787528    0.1200
     48 H48       -10.5257   -4.2293   53.9285 H       1  ZINC001119787528    0.0900
     49 H49       -10.3856   -2.6386   54.7265 H       1  ZINC001119787528    0.0900
@<TRIPOS>BOND
     1     1     2    1
     2     1    28    1
     3     1    29    1
     4     1    30    1
     5     2     3    1
     6     2    31    1
     7     2    32    1
     8     3     7    1
     9     3     4    1
    10     4     5    2
    11     4    33    1
    12     5     6    1
    13     6    27    1
    14     6     7    2
    15     7     8    1
    16     8     9    1
    17     8    34    1
    18     8    35    1
    19     9    10    1
    20     9    36    1
    21     9    37    1
    22    10    11   am
    23    10    27    1
    24    11    12    2
    25    11    13   am
    26    13    14    1
    27    13    38    1
    28    14    26   ar
    29    14    15   ar
    30    15    16   ar
    31    15    39    1
    32    16    17   ar
    33    16    40    1
    34    17    18   ar
    35    18    19    1
    36    18    26   ar
    37    19    20    1
    38    19    41    1
    39    19    42    1
    40    20    25   ar
    41    20    21   ar
    42    21    22   ar
    43    21    43    1
    44    22    23   ar
    45    22    44    1
    46    23    24   ar
    47    23    45    1
    48    24    25   ar
    49    24    46    1
    50    25    47    1
    51    27    48    1
    52    27    49    1
@<TRIPOS>SUBSTRUCTURE
     1 ZINC001119787528        1 TEMP              0 ****  ****    0 ROOT


##########                                Name:    ZINC000444811358
##########                DOCK_Rotatable_Bonds:                  11
##########                         Heavy_Atoms:                  27
##########                    Molecular_Weight:             374.455
##########                DOCK_Rotatable_Bonds:                  11
##########                       Formal_Charge:          0.00999966
##########                     HBond_Acceptors:                   6
##########                        HBond_Donors:                   2
##########                         Heavy_Atoms:                  27
##########                          Grid_Score:          -34.263420
##########                     Grid_vdw_energy:          -33.939640
##########                      Grid_es_energy:           -0.323779
##########           Internal_energy_repulsive:           27.463348

@<TRIPOS>MOLECULE
ZINC000444811358
 54 55 1 0 0
SMALL
USER_CHARGES


@<TRIPOS>ATOM
      1 C1         -9.4202    0.2491   62.8916 C.3     1  ZINC000444811358   -0.1100
      2 C2         -9.5787   -0.4926   61.5893 C.ar    1  ZINC000444811358   -0.1300
      3 C3         -8.9767   -1.7252   61.4197 C.ar    1  ZINC000444811358   -0.0700
      4 C4         -9.1195   -2.4077   60.2271 C.ar    1  ZINC000444811358   -0.1500
      5 C5         -9.8694   -1.8553   59.1971 C.ar    1  ZINC000444811358    0.1700
      6 N6        -10.0156   -2.5453   57.9887 N.am    1  ZINC000444811358   -0.6800
      7 C7        -11.1459   -3.2359   57.7395 C.2     1  ZINC000444811358    0.5200
      8 O8        -12.0363   -3.2592   58.5626 O.2     1  ZINC000444811358   -0.5000
      9 C9        -11.3032   -3.9791   56.4379 C.3     1  ZINC000444811358    0.0200
     10 N10       -12.3592   -3.3456   55.6370 N.3     1  ZINC000444811358   -0.5000
     11 C11       -12.0812   -3.4775   54.2006 C.3     1  ZINC000444811358    0.0200
     12 C12       -11.1638   -2.3382   53.7519 C.3     1  ZINC000444811358    0.1100
     13 H13       -10.3823   -2.1864   54.4963 H       1  ZINC000444811358    0.1200
     14 O14       -10.5678   -2.6727   52.4970 O.3     1  ZINC000444811358   -0.5400
     15 C15       -11.9817   -1.0538   53.6018 C.3     1  ZINC000444811358    0.0300
     16 O16       -11.1444   -0.0125   53.0952 O.3     1  ZINC000444811358   -0.3000
     17 C17       -10.1444    0.4240   53.9052 C.ar    1  ZINC000444811358    0.1300
     18 C18       -10.2103    0.2007   55.2729 C.ar    1  ZINC000444811358   -0.2100
     19 C19        -9.1921    0.6450   56.0940 C.ar    1  ZINC000444811358   -0.0800
     20 C20        -8.1081    1.3121   55.5540 C.ar    1  ZINC000444811358   -0.1600
     21 C21        -8.0402    1.5363   54.1913 C.ar    1  ZINC000444811358   -0.0800
     22 C22        -9.0528    1.0886   53.3651 C.ar    1  ZINC000444811358   -0.1500
     23 C23       -13.6778   -3.9002   55.9711 C.3     1  ZINC000444811358    0.0700
     24 C24       -14.7704   -2.9410   55.4942 C.3     1  ZINC000444811358   -0.1400
     25 C25       -13.8512   -5.2546   55.2807 C.3     1  ZINC000444811358   -0.1900
     26 C26       -10.4743   -0.6172   59.3685 C.ar    1  ZINC000444811358   -0.1500
     27 C27       -10.3324    0.0596   60.5665 C.ar    1  ZINC000444811358    0.1200
     28 F28       -10.9201    1.2642   60.7352 F       1  ZINC000444811358   -0.1300
     29 H29       -10.2214   -0.0374   63.5727 H       1  ZINC000444811358    0.0700
     30 H30        -8.4575   -0.0011   63.3373 H       1  ZINC000444811358    0.0700
     31 H31        -9.4670    1.3222   62.7065 H       1  ZINC000444811358    0.0700
     32 H32        -8.3934   -2.1551   62.2205 H       1  ZINC000444811358    0.1400
     33 H33        -8.6480   -3.3703   60.0958 H       1  ZINC000444811358    0.1300
     34 H34        -9.3035   -2.5268   57.3303 H       1  ZINC000444811358    0.4100
     35 H35       -10.3630   -3.9505   55.8872 H       1  ZINC000444811358    0.1300
     36 H36       -11.5738   -5.0152   56.6415 H       1  ZINC000444811358    0.0700
     37 H37       -11.5928   -4.4334   54.0113 H       1  ZINC000444811358    0.0500
     38 H38       -13.0171   -3.4311   53.6436 H       1  ZINC000444811358    0.1000
     39 H39       -11.1926   -2.6986   51.7592 H       1  ZINC000444811358    0.3700
     40 H40       -12.8057   -1.2266   52.9097 H       1  ZINC000444811358    0.0600
     41 H41       -12.3789   -0.7604   54.5735 H       1  ZINC000444811358    0.0700
     42 H42       -11.0572   -0.3198   55.6952 H       1  ZINC000444811358    0.1300
     43 H43        -9.2430    0.4714   57.1587 H       1  ZINC000444811358    0.1200
     44 H44        -7.3133    1.6589   56.1977 H       1  ZINC000444811358    0.1200
     45 H45        -7.1925    2.0579   53.7719 H       1  ZINC000444811358    0.1300
     46 H46        -8.9993    1.2640   52.3008 H       1  ZINC000444811358    0.1300
     47 H47       -13.7543   -4.0302   57.0507 H       1  ZINC000444811358    0.0900
     48 H48       -14.7794   -2.9135   54.4046 H       1  ZINC000444811358    0.0500
     49 H49       -15.7390   -3.2845   55.8571 H       1  ZINC000444811358    0.0600
     50 H50       -14.5708   -1.9418   55.8812 H       1  ZINC000444811358    0.0700
     51 H51       -13.0730   -5.9379   55.6204 H       1  ZINC000444811358    0.0500
     52 H52       -14.8296   -5.6660   55.5287 H       1  ZINC000444811358    0.0700
     53 H53       -13.7748   -5.1246   54.2013 H       1  ZINC000444811358    0.0600
     54 H54       -11.0578   -0.1850   58.5691 H       1  ZINC000444811358    0.1500
@<TRIPOS>BOND
     1     1     2    1
     2     1    29    1
     3     1    30    1
     4     1    31    1
     5     2    27   ar
     6     2     3   ar
     7     3     4   ar
     8     3    32    1
     9     4     5   ar
    10     4    33    1
    11     5     6    1
    12     5    26   ar
    13     6     7   am
    14     6    34    1
    15     7     8    2
    16     7     9    1
    17     9    10    1
    18     9    35    1
    19     9    36    1
    20    10    11    1
    21    10    23    1
    22    11    12    1
    23    11    37    1
    24    11    38    1
    25    12    13    1
    26    12    14    1
    27    12    15    1
    28    14    39    1
    29    15    16    1
    30    15    40    1
    31    15    41    1
    32    16    17    1
    33    17    22   ar
    34    17    18   ar
    35    18    19   ar
    36    18    42    1
    37    19    20   ar
    38    19    43    1
    39    20    21   ar
    40    20    44    1
    41    21    22   ar
    42    21    45    1
    43    22    46    1
    44    23    24    1
    45    23    25    1
    46    23    47    1
    47    24    48    1
    48    24    49    1
    49    24    50    1
    50    25    51    1
    51    25    52    1
    52    25    53    1
    53    26    27   ar
    54    26    54    1
    55    27    28    1
@<TRIPOS>SUBSTRUCTURE
     1 ZINC000444811358        1 TEMP              0 ****  ****    0 ROOT


##########                                Name:    ZINC000439870054
##########                DOCK_Rotatable_Bonds:                   5
##########                         Heavy_Atoms:                  27
##########                    Molecular_Weight:             421.974
##########                DOCK_Rotatable_Bonds:                   5
##########                       Formal_Charge:           0.0200003
##########                     HBond_Acceptors:                   9
##########                        HBond_Donors:                   0
##########                         Heavy_Atoms:                  27
##########                          Grid_Score:          -34.261063
##########                     Grid_vdw_energy:          -33.813572
##########                      Grid_es_energy:           -0.447491
##########           Internal_energy_repulsive:           66.581734

@<TRIPOS>MOLECULE
ZINC000439870054
 47 50 1 0 0
SMALL
USER_CHARGES


@<TRIPOS>ATOM
      1 C1        -10.2542   -0.7258   60.9276 C.3     1  ZINC000439870054   -0.1400
      2 C2        -10.4142   -1.8334   59.8844 C.3     1  ZINC000439870054    0.0000
      3 C3         -9.5228   -3.0193   60.2588 C.3     1  ZINC000439870054   -0.1400
      4 C4        -11.8529   -2.2800   59.8423 C.2     1  ZINC000439870054    0.1900
      5 N5        -12.7118   -2.2280   60.8277 N.2     1  ZINC000439870054   -0.2900
      6 N6        -13.8489   -2.6951   60.4394 N.2     1  ZINC000439870054   -0.2700
      7 C7        -13.7628   -3.0642   59.1987 C.2     1  ZINC000439870054    0.1600
      8 C8        -14.8265   -3.6786   58.3211 C.3     1  ZINC000439870054    0.2400
      9 H9        -15.0255   -4.7021   58.6387 H       1  ZINC000439870054    0.1100
     10 C10       -16.1100   -2.8494   58.3983 C.3     1  ZINC000439870054   -0.1300
     11 N11       -14.3031   -3.6721   56.9418 N.am    1  ZINC000439870054   -0.6300
     12 C12       -15.0860   -3.3139   55.9051 C.2     1  ZINC000439870054    0.5300
     13 O13       -16.2387   -2.9904   56.0991 O.2     1  ZINC000439870054   -0.4900
     14 C14       -14.5292   -3.3149   54.5047 C.3     1  ZINC000439870054   -0.0700
     15 C15       -13.6523   -2.1046   54.3118 C.2     1  ZINC000439870054    0.0900
     16 C16       -14.0162   -0.8905   54.7348 C.2     1  ZINC000439870054   -0.2400
     17 S17       -12.7325    0.2455   54.3252 S.3     1  ZINC000439870054    0.1300
     18 C18       -11.8064   -1.0680   53.6035 C.2     1  ZINC000439870054    0.1400
     19 C19       -10.4835   -0.9348   52.9741 C.2     1  ZINC000439870054   -0.1300
     20 C20        -9.8687   -1.8887   52.2413 C.2     1  ZINC000439870054   -0.1000
     21 C21        -8.6308   -1.5306   51.7529 C.2     1  ZINC000439870054   -0.1200
     22 C22        -8.2282   -0.2962   52.0783 C.2     1  ZINC000439870054   -0.1500
     23 Cl23       -6.7194    0.4196   51.6040 Cl      1  ZINC000439870054    0.0000
     24 S24        -9.4607    0.4939   53.0526 S.3     1  ZINC000439870054    0.2500
     25 N25       -12.4805   -2.1791   53.7221 N.2     1  ZINC000439870054   -0.4400
     26 C26       -12.9023   -4.0675   56.7305 C.3     1  ZINC000439870054    0.0900
     27 C27       -11.9822   -3.0658   57.4381 C.3     1  ZINC000439870054    0.0900
     28 N28       -12.4983   -2.8026   58.7807 N.pl3   1  ZINC000439870054   -0.4700
     29 H29        -9.2136   -0.4028   60.9581 H       1  ZINC000439870054    0.0700
     30 H30       -10.8893    0.1191   60.6609 H       1  ZINC000439870054    0.0500
     31 H31       -10.5458   -1.1046   61.9072 H       1  ZINC000439870054    0.0700
     32 H32       -10.1225   -1.4548   58.9048 H       1  ZINC000439870054    0.0800
     33 H33        -9.6367   -3.8085   59.5156 H       1  ZINC000439870054    0.0500
     34 H34        -8.4822   -2.6963   60.2892 H       1  ZINC000439870054    0.0700
     35 H35        -9.8144   -3.3980   61.2384 H       1  ZINC000439870054    0.0700
     36 H36       -15.9460   -1.8809   57.9258 H       1  ZINC000439870054    0.0600
     37 H37       -16.9134   -3.3744   57.8813 H       1  ZINC000439870054    0.0900
     38 H38       -16.3853   -2.7022   59.4426 H       1  ZINC000439870054    0.0700
     39 H39       -13.9403   -4.2188   54.3485 H       1  ZINC000439870054    0.1100
     40 H40       -15.3496   -3.2872   53.7875 H       1  ZINC000439870054    0.1200
     41 H41       -14.9390   -0.6470   55.2405 H       1  ZINC000439870054    0.1800
     42 H42       -10.3119   -2.8554   52.0535 H       1  ZINC000439870054    0.1500
     43 H43        -8.0295   -2.1970   51.1522 H       1  ZINC000439870054    0.1600
     44 H44       -12.7395   -5.0641   57.1408 H       1  ZINC000439870054    0.0900
     45 H45       -12.6826   -4.0723   55.6628 H       1  ZINC000439870054    0.1200
     46 H46       -10.9765   -3.4806   57.5068 H       1  ZINC000439870054    0.1100
     47 H47       -11.9550   -2.1340   56.8730 H       1  ZINC000439870054    0.0900
@<TRIPOS>BOND
     1     1     2    1
     2     1    29    1
     3     1    30    1
     4     1    31    1
     5     2     3    1
     6     2     4    1
     7     2    32    1
     8     3    33    1
     9     3    34    1
    10     3    35    1
    11     4    28    1
    12     4     5    2
    13     5     6    1
    14     6     7    2
    15     7    28    1
    16     7     8    1
    17     8     9    1
    18     8    10    1
    19     8    11    1
    20    10    36    1
    21    10    37    1
    22    10    38    1
    23    11    12   am
    24    11    26    1
    25    12    13    2
    26    12    14    1
    27    14    15    1
    28    14    39    1
    29    14    40    1
    30    15    25    1
    31    15    16    2
    32    16    17    1
    33    16    41    1
    34    17    18    1
    35    18    19    1
    36    18    25    2
    37    19    24    1
    38    19    20    2
    39    20    21    1
    40    20    42    1
    41    21    22    2
    42    21    43    1
    43    22    23    1
    44    22    24    1
    45    26    27    1
    46    26    44    1
    47    26    45    1
    48    27    28    1
    49    27    46    1
    50    27    47    1
@<TRIPOS>SUBSTRUCTURE
     1 ZINC000439870054        1 TEMP              0 ****  ****    0 ROOT


##########                                Name:    ZINC001400108193
##########                DOCK_Rotatable_Bonds:                   9
##########                         Heavy_Atoms:                  25
##########                    Molecular_Weight:              344.41
##########                DOCK_Rotatable_Bonds:                   9
##########                       Formal_Charge:           0.0200001
##########                     HBond_Acceptors:                   6
##########                        HBond_Donors:                   2
##########                         Heavy_Atoms:                  25
##########                          Grid_Score:          -34.242615
##########                     Grid_vdw_energy:          -33.877350
##########                      Grid_es_energy:           -0.365264
##########           Internal_energy_repulsive:            5.353190

@<TRIPOS>MOLECULE
ZINC001400108193
 49 50 1 0 0
SMALL
USER_CHARGES


@<TRIPOS>ATOM
      1 C1         -5.9474    2.7349   52.4451 C.3     1  ZINC001400108193   -0.0800
      2 C2         -7.1298    1.8477   52.7382 C.2     1  ZINC001400108193   -0.0100
      3 C3         -7.2955    0.5965   52.2826 C.2     1  ZINC001400108193   -0.1600
      4 C4         -8.5824    0.1363   52.8245 C.2     1  ZINC001400108193   -0.2300
      5 C5         -9.2192   -1.1761   52.6145 C.2     1  ZINC001400108193    0.5900
      6 O6         -8.6639   -2.0201   51.9375 O.2     1  ZINC001400108193   -0.5300
      7 N7        -10.4170   -1.4410   53.1729 N.am    1  ZINC001400108193   -0.7300
      8 C8        -11.0508   -2.7450   52.9627 C.3     1  ZINC001400108193    0.1100
      9 C9        -12.0943   -2.9868   54.0552 C.3     1  ZINC001400108193    0.1300
     10 H10       -12.6694   -2.0751   54.2165 H       1  ZINC001400108193    0.1000
     11 C11       -13.0348   -4.1132   53.6220 C.3     1  ZINC001400108193   -0.1600
     12 N12       -11.4199   -3.3653   55.2995 N.am    1  ZINC001400108193   -0.7300
     13 C13       -11.9659   -3.0397   56.4879 C.2     1  ZINC001400108193    0.5200
     14 O14       -13.0164   -2.4348   56.5273 O.2     1  ZINC001400108193   -0.5100
     15 C15       -11.2712   -3.4274   57.7678 C.3     1  ZINC001400108193    0.0700
     16 H16       -11.9441   -3.2652   58.6099 H       1  ZINC001400108193    0.1000
     17 C17       -10.8773   -4.9046   57.7070 C.3     1  ZINC001400108193   -0.1800
     18 O18       -10.0985   -2.6282   57.9344 O.3     1  ZINC001400108193   -0.2800
     19 C19        -9.9726   -1.9543   59.1078 C.ar    1  ZINC001400108193    0.1200
     20 C20        -9.1492   -2.4494   60.1085 C.ar    1  ZINC001400108193   -0.2100
     21 C21        -9.0226   -1.7623   61.3002 C.ar    1  ZINC001400108193   -0.0800
     22 C22        -9.7197   -0.5847   61.4980 C.ar    1  ZINC001400108193   -0.1200
     23 C23        -9.5845    0.1597   62.8014 C.3     1  ZINC001400108193   -0.1100
     24 C24       -10.5369   -0.0864   60.5002 C.ar    1  ZINC001400108193   -0.0800
     25 C25       -10.6669   -0.7697   59.3066 C.ar    1  ZINC001400108193   -0.1400
     26 C26        -9.0667    1.1801   53.5572 C.2     1  ZINC001400108193    0.0200
     27 O27        -8.1852    2.1829   53.4965 O.3     1  ZINC001400108193   -0.1700
     28 H28        -6.1432    3.3150   51.5433 H       1  ZINC001400108193    0.0900
     29 H29        -5.7840    3.4114   53.2840 H       1  ZINC001400108193    0.0800
     30 H30        -5.0598    2.1200   52.2960 H       1  ZINC001400108193    0.0900
     31 H31        -6.6210    0.0409   51.6480 H       1  ZINC001400108193    0.1600
     32 H32       -10.8593   -0.7682   53.7138 H       1  ZINC001400108193    0.4000
     33 H33       -10.2936   -3.5279   53.0038 H       1  ZINC001400108193    0.0800
     34 H34       -11.5362   -2.7599   51.9869 H       1  ZINC001400108193    0.0900
     35 H35       -13.7782   -4.2854   54.4002 H       1  ZINC001400108193    0.0700
     36 H36       -13.5365   -3.8315   52.6961 H       1  ZINC001400108193    0.0700
     37 H37       -12.4596   -5.0249   53.4606 H       1  ZINC001400108193    0.0600
     38 H38       -10.5803   -3.8501   55.2680 H       1  ZINC001400108193    0.4000
     39 H39       -11.7718   -5.5143   57.5799 H       1  ZINC001400108193    0.0800
     40 H40       -10.2044   -5.0668   56.8649 H       1  ZINC001400108193    0.0800
     41 H41       -10.3748   -5.1851   58.6328 H       1  ZINC001400108193    0.0800
     42 H42        -8.6080   -3.3716   59.9562 H       1  ZINC001400108193    0.1300
     43 H43        -8.3820   -2.1475   62.0797 H       1  ZINC001400108193    0.1300
     44 H44        -8.7622    0.8715   62.7297 H       1  ZINC001400108193    0.0700
     45 H45       -10.5106    0.6944   63.0121 H       1  ZINC001400108193    0.0700
     46 H46        -9.3829   -0.5486   63.6051 H       1  ZINC001400108193    0.0700
     47 H47       -11.0771    0.8358   60.6555 H       1  ZINC001400108193    0.1300
     48 H48       -11.3082   -0.3820   58.5290 H       1  ZINC001400108193    0.1300
     49 H49       -10.0021    1.1929   54.0970 H       1  ZINC001400108193    0.2100
@<TRIPOS>BOND
     1     1     2    1
     2     1    28    1
     3     1    29    1
     4     1    30    1
     5     2    27    1
     6     2     3    2
     7     3     4    1
     8     3    31    1
     9     4     5    1
    10     4    26    2
    11     5     6    2
    12     5     7   am
    13     7     8    1
    14     7    32    1
    15     8     9    1
    16     8    33    1
    17     8    34    1
    18     9    10    1
    19     9    11    1
    20     9    12    1
    21    11    35    1
    22    11    36    1
    23    11    37    1
    24    12    13   am
    25    12    38    1
    26    13    14    2
    27    13    15    1
    28    15    16    1
    29    15    17    1
    30    15    18    1
    31    17    39    1
    32    17    40    1
    33    17    41    1
    34    18    19    1
    35    19    25   ar
    36    19    20   ar
    37    20    21   ar
    38    20    42    1
    39    21    22   ar
    40    21    43    1
    41    22    23    1
    42    22    24   ar
    43    23    44    1
    44    23    45    1
    45    23    46    1
    46    24    25   ar
    47    24    47    1
    48    25    48    1
    49    26    27    1
    50    26    49    1
@<TRIPOS>SUBSTRUCTURE
     1 ZINC001400108193        1 TEMP              0 ****  ****    0 ROOT


##########                                Name:    ZINC000530457945
##########                DOCK_Rotatable_Bonds:                   4
##########                         Heavy_Atoms:                  25
##########                    Molecular_Weight:             355.827
##########                DOCK_Rotatable_Bonds:                   4
##########                       Formal_Charge:           0.0199997
##########                     HBond_Acceptors:                   7
##########                        HBond_Donors:                   1
##########                         Heavy_Atoms:                  25
##########                          Grid_Score:          -34.235886
##########                     Grid_vdw_energy:          -34.247158
##########                      Grid_es_energy:            0.011273
##########           Internal_energy_repulsive:           30.495575

@<TRIPOS>MOLECULE
ZINC000530457945
 43 46 1 0 0
SMALL
USER_CHARGES


@<TRIPOS>ATOM
      1 C1         -2.8785    1.7987   47.1065 C.3     1  ZINC000530457945   -0.1700
      2 C2         -2.3568    1.2856   48.4502 C.3     1  ZINC000530457945    0.0900
      3 H3         -2.8330    0.3362   48.6946 H       1  ZINC000530457945    0.1100
      4 C4         -2.6500    2.3205   49.5568 C.3     1  ZINC000530457945   -0.1200
      5 H5         -2.7715    3.3164   49.1309 H       1  ZINC000530457945    0.1100
      6 C6         -3.8736    1.9267   50.3436 C.2     1  ZINC000530457945    0.5300
      7 O7         -3.9435    2.1862   51.5262 O.2     1  ZINC000530457945   -0.4700
      8 N8         -4.8901    1.2862   49.7328 N.am    1  ZINC000530457945   -0.6200
      9 C9         -6.0234    0.9199   50.4623 C.2     1  ZINC000530457945    0.4800
     10 N10        -6.4083   -0.3178   50.6991 N.2     1  ZINC000530457945   -0.3000
     11 N11        -7.5838   -0.2448   51.4600 N.pl3   1  ZINC000530457945   -0.2800
     12 C12        -8.4094   -1.1880   51.9852 C.2     1  ZINC000530457945    0.1400
     13 C13        -9.5030   -0.8268   52.6959 C.2     1  ZINC000530457945   -0.0800
     14 Cl14      -10.5459   -2.0457   53.3591 Cl      1  ZINC000530457945   -0.0200
     15 C15        -9.7957    0.5305   52.8985 C.2     1  ZINC000530457945   -0.0500
     16 C16        -8.9727    1.4817   52.3756 C.2     1  ZINC000530457945   -0.0900
     17 C17        -7.8420    1.0843   51.6401 C.2     1  ZINC000530457945    0.3000
     18 N18        -6.8773    1.7658   51.0297 N.2     1  ZINC000530457945   -0.5500
     19 C19        -1.3785    2.2542   50.4431 C.3     1  ZINC000530457945   -0.1200
     20 C20        -0.2724    2.0123   49.3859 C.3     1  ZINC000530457945    0.0400
     21 N21        -0.8940    1.1115   48.3869 N.3     1  ZINC000530457945   -0.4900
     22 C22        -0.4131    1.3799   47.1033 C.ar    1  ZINC000530457945    0.1000
     23 C23        -0.0770    0.3341   46.2531 C.ar    1  ZINC000530457945   -0.1600
     24 C24         0.3977    0.6031   44.9843 C.ar    1  ZINC000530457945   -0.1100
     25 C25         0.5390    1.9117   44.5603 C.ar    1  ZINC000530457945   -0.1300
     26 C26         0.2054    2.9551   45.4042 C.ar    1  ZINC000530457945   -0.1100
     27 C27        -0.2754    2.6932   46.6721 C.ar    1  ZINC000530457945   -0.1000
     28 H28        -2.5598    1.1243   46.3116 H       1  ZINC000530457945    0.0700
     29 H29        -3.9673    1.8415   47.1318 H       1  ZINC000530457945    0.0600
     30 H30        -2.4799    2.7957   46.9187 H       1  ZINC000530457945    0.0600
     31 H31        -4.8346    1.0798   48.7867 H       1  ZINC000530457945    0.4300
     32 H32        -8.1911   -2.2348   51.8338 H       1  ZINC000530457945    0.1800
     33 H33       -10.6685    0.8192   53.4653 H       1  ZINC000530457945    0.1600
     34 H34        -9.1866    2.5298   52.5238 H       1  ZINC000530457945    0.1700
     35 H35        -1.2183    3.1964   50.9672 H       1  ZINC000530457945    0.0900
     36 H36        -1.4353    1.4230   51.1460 H       1  ZINC000530457945    0.0900
     37 H37         0.0197    2.9535   48.9202 H       1  ZINC000530457945    0.0700
     38 H38         0.5913    1.5303   49.8438 H       1  ZINC000530457945    0.0900
     39 H39        -0.1865   -0.6881   46.5838 H       1  ZINC000530457945    0.1200
     40 H40         0.6592   -0.2095   44.3227 H       1  ZINC000530457945    0.1200
     41 H41         0.9112    2.1193   43.5679 H       1  ZINC000530457945    0.1200
     42 H42         0.3170    3.9761   45.0700 H       1  ZINC000530457945    0.1300
     43 H43        -0.5360    3.5085   47.3306 H       1  ZINC000530457945    0.1300
@<TRIPOS>BOND
     1     1     2    1
     2     1    28    1
     3     1    29    1
     4     1    30    1
     5     2     3    1
     6     2    21    1
     7     2     4    1
     8     4     5    1
     9     4     6    1
    10     4    19    1
    11     6     7    2
    12     6     8   am
    13     8     9    1
    14     8    31    1
    15     9    18    1
    16     9    10    2
    17    10    11    1
    18    11    17    1
    19    11    12    1
    20    12    13    2
    21    12    32    1
    22    13    14    1
    23    13    15    1
    24    15    16    2
    25    15    33    1
    26    16    17    1
    27    16    34    1
    28    17    18    2
    29    19    20    1
    30    19    35    1
    31    19    36    1
    32    20    21    1
    33    20    37    1
    34    20    38    1
    35    21    22    1
    36    22    27   ar
    37    22    23   ar
    38    23    24   ar
    39    23    39    1
    40    24    25   ar
    41    24    40    1
    42    25    26   ar
    43    25    41    1
    44    26    27   ar
    45    26    42    1
    46    27    43    1
@<TRIPOS>SUBSTRUCTURE
     1 ZINC000530457945        1 TEMP              0 ****  ****    0 ROOT


##########                                Name:    ZINC000880838037
##########                DOCK_Rotatable_Bonds:                   9
##########                         Heavy_Atoms:                  24
##########                    Molecular_Weight:             365.477
##########                DOCK_Rotatable_Bonds:                   9
##########                       Formal_Charge:           0.0200001
##########                     HBond_Acceptors:                   8
##########                        HBond_Donors:                   3
##########                         Heavy_Atoms:                  24
##########                          Grid_Score:          -34.224003
##########                     Grid_vdw_energy:          -32.883980
##########                      Grid_es_energy:           -1.340022
##########           Internal_energy_repulsive:            9.475575

@<TRIPOS>MOLECULE
ZINC000880838037
 43 44 1 0 0
SMALL
USER_CHARGES


@<TRIPOS>ATOM
      1 C1        -12.1630    2.5860   62.7735 C.3     1  ZINC000880838037    0.0300
      2 O2        -10.7874    2.5101   62.3939 O.3     1  ZINC000880838037   -0.3100
      3 C3        -10.1122    1.3837   62.7435 C.ar    1  ZINC000880838037    0.1400
      4 C4         -9.7614    1.1676   64.0686 C.ar    1  ZINC000880838037   -0.2200
      5 C5         -9.0747    0.0226   64.4257 C.ar    1  ZINC000880838037   -0.0700
      6 C6         -8.7348   -0.9099   63.4651 C.ar    1  ZINC000880838037   -0.1500
      7 C7         -9.0830   -0.6985   62.1368 C.ar    1  ZINC000880838037    0.1800
      8 N8         -8.7387   -1.6431   61.1636 N.am    1  ZINC000880838037   -0.6700
      9 C9         -9.6461   -2.5526   60.7563 C.2     1  ZINC000880838037    0.5200
     10 O10       -10.7612   -2.5521   61.2333 O.2     1  ZINC000880838037   -0.4900
     11 C11        -9.2753   -3.5698   59.7082 C.3     1  ZINC000880838037   -0.0600
     12 C12       -10.0815   -3.3213   58.4594 C.2     1  ZINC000880838037    0.1000
     13 C13        -9.8516   -2.2893   57.6470 C.2     1  ZINC000880838037   -0.2600
     14 S14       -11.0072   -2.3695   56.3197 S.3     1  ZINC000880838037    0.1300
     15 C15       -11.6909   -3.7876   56.9866 C.2     1  ZINC000880838037    0.0100
     16 S16       -13.0379   -4.6835   56.2884 S.3     1  ZINC000880838037    0.1000
     17 C17       -13.5463   -3.5271   54.9921 C.3     1  ZINC000880838037   -0.1500
     18 H18       -13.3722   -2.5050   55.3284 H       1  ZINC000880838037    0.1200
     19 C19       -15.0343   -3.7190   54.6923 C.3     1  ZINC000880838037   -0.1500
     20 C20       -12.7444   -3.7884   53.7431 C.2     1  ZINC000880838037    0.5400
     21 N21       -12.4807   -2.7803   52.8884 N.am    1  ZINC000880838037   -0.8400
     22 O22       -12.3366   -4.9059   53.5071 O.2     1  ZINC000880838037   -0.5200
     23 N23       -11.0693   -4.1113   58.0786 N.2     1  ZINC000880838037   -0.4200
     24 C24        -9.7782    0.4473   61.7775 C.ar    1  ZINC000880838037   -0.1500
     25 C25       -10.1576    0.6799   60.3376 C.3     1  ZINC000880838037   -0.1000
     26 H26       -12.2446    2.5205   63.8584 H       1  ZINC000880838037    0.0600
     27 H27       -12.5818    3.5335   62.4341 H       1  ZINC000880838037    0.1000
     28 H28       -12.7118    1.7622   62.3173 H       1  ZINC000880838037    0.0600
     29 H29       -10.0252    1.8953   64.8218 H       1  ZINC000880838037    0.1300
     30 H30        -8.8029   -0.1431   65.4577 H       1  ZINC000880838037    0.1300
     31 H31        -8.1978   -1.8036   63.7466 H       1  ZINC000880838037    0.1400
     32 H32        -7.8468   -1.6433   60.7821 H       1  ZINC000880838037    0.4100
     33 H33        -8.2133   -3.4839   59.4782 H       1  ZINC000880838037    0.1200
     34 H34        -9.4859   -4.5713   60.0833 H       1  ZINC000880838037    0.1200
     35 H35        -9.0900   -1.5352   57.7798 H       1  ZINC000880838037    0.1800
     36 H36       -15.2084   -4.7411   54.3560 H       1  ZINC000880838037    0.0900
     37 H37       -15.6143   -3.5299   55.5956 H       1  ZINC000880838037    0.0800
     38 H38       -15.3404   -3.0225   53.9117 H       1  ZINC000880838037    0.0800
     39 H39       -11.9636   -2.9481   52.0851 H       1  ZINC000880838037    0.4000
     40 H40       -12.8080   -1.8867   53.0767 H       1  ZINC000880838037    0.4100
     41 H41       -11.1383    0.2448   60.1455 H       1  ZINC000880838037    0.0700
     42 H42       -10.1900    1.7511   60.1389 H       1  ZINC000880838037    0.0700
     43 H43        -9.4187    0.2119   59.6872 H       1  ZINC000880838037    0.0600
@<TRIPOS>BOND
     1     1     2    1
     2     1    26    1
     3     1    27    1
     4     1    28    1
     5     2     3    1
     6     3    24   ar
     7     3     4   ar
     8     4     5   ar
     9     4    29    1
    10     5     6   ar
    11     5    30    1
    12     6     7   ar
    13     6    31    1
    14     7     8    1
    15     7    24   ar
    16     8     9   am
    17     8    32    1
    18     9    10    2
    19     9    11    1
    20    11    12    1
    21    11    33    1
    22    11    34    1
    23    12    23    1
    24    12    13    2
    25    13    14    1
    26    13    35    1
    27    14    15    1
    28    15    16    1
    29    15    23    2
    30    16    17    1
    31    17    18    1
    32    17    19    1
    33    17    20    1
    34    19    36    1
    35    19    37    1
    36    19    38    1
    37    20    21   am
    38    20    22    2
    39    21    39    1
    40    21    40    1
    41    24    25    1
    42    25    41    1
    43    25    42    1
    44    25    43    1
@<TRIPOS>SUBSTRUCTURE
     1 ZINC000880838037        1 TEMP              0 ****  ****    0 ROOT


##########                                Name:    ZINC000787750060
##########                DOCK_Rotatable_Bonds:                   6
##########                         Heavy_Atoms:                  24
##########                    Molecular_Weight:             347.438
##########                DOCK_Rotatable_Bonds:                   6
##########                       Formal_Charge:           0.0200003
##########                     HBond_Acceptors:                   7
##########                        HBond_Donors:                   2
##########                         Heavy_Atoms:                  24
##########                          Grid_Score:          -34.212414
##########                     Grid_vdw_energy:          -33.332150
##########                      Grid_es_energy:           -0.880264
##########           Internal_energy_repulsive:            7.003004

@<TRIPOS>MOLECULE
ZINC000787750060
 45 47 1 0 0
SMALL
USER_CHARGES


@<TRIPOS>ATOM
      1 C1        -10.4133    2.6630   63.7921 C.3     1  ZINC000787750060   -0.1200
      2 C2        -10.1375    1.5295   62.8379 C.ar    1  ZINC000787750060   -0.0400
      3 C3        -10.6912    1.5481   61.5685 C.ar    1  ZINC000787750060   -0.1300
      4 C4        -10.4458    0.5168   60.6877 C.ar    1  ZINC000787750060   -0.0700
      5 C5         -9.6348   -0.5521   61.0754 C.ar    1  ZINC000787750060   -0.1700
      6 C6         -9.3674   -1.6591   60.1374 C.2     1  ZINC000787750060    0.5600
      7 O7         -8.6905   -1.4659   59.1461 O.2     1  ZINC000787750060   -0.5200
      8 N8         -9.8736   -2.8845   60.3795 N.am    1  ZINC000787750060   -0.7300
      9 C9         -9.6096   -3.9833   59.4472 C.3     1  ZINC000787750060    0.2100
     10 C10       -10.6642   -3.9929   58.3706 C.2     1  ZINC000787750060   -0.2800
     11 C11       -11.0739   -5.0609   57.6858 C.2     1  ZINC000787750060    0.0900
     12 N12       -12.0137   -4.8126   56.7909 N.2     1  ZINC000787750060   -0.5200
     13 C13       -12.4159   -3.5839   56.6889 C.2     1  ZINC000787750060    0.2300
     14 N14       -13.3901   -3.1377   55.8096 N.3     1  ZINC000787750060   -0.4500
     15 C15       -14.4362   -4.1535   55.6225 C.3     1  ZINC000787750060    0.0200
     16 C16       -15.5190   -3.5981   54.6938 C.3     1  ZINC000787750060    0.0600
     17 O17       -14.9215   -3.2020   53.4562 O.3     1  ZINC000787750060   -0.3800
     18 C18       -13.8987   -2.2131   53.6013 C.3     1  ZINC000787750060    0.0600
     19 C19       -12.7993   -2.7546   54.5191 C.3     1  ZINC000787750060    0.0300
     20 S20       -11.5757   -2.5963   57.8032 S.3     1  ZINC000787750060    0.1700
     21 C21        -9.0758   -0.5669   62.3609 C.ar    1  ZINC000787750060    0.1700
     22 O22        -8.2865   -1.5998   62.7488 O.3     1  ZINC000787750060   -0.4700
     23 C23        -9.3295    0.4813   63.2324 C.ar    1  ZINC000787750060   -0.1200
     24 C24        -8.7316    0.4714   64.6157 C.3     1  ZINC000787750060   -0.1200
     25 H25        -9.6562    3.4368   63.6656 H       1  ZINC000787750060    0.0800
     26 H26       -11.3983    3.0811   63.5847 H       1  ZINC000787750060    0.0700
     27 H27       -10.3848    2.2908   64.8162 H       1  ZINC000787750060    0.0800
     28 H28       -11.3185    2.3742   61.2677 H       1  ZINC000787750060    0.1300
     29 H29       -10.8802    0.5352   59.6991 H       1  ZINC000787750060    0.1300
     30 H30       -10.4127   -3.0389   61.1709 H       1  ZINC000787750060    0.4000
     31 H31        -8.6282   -3.8466   58.9931 H       1  ZINC000787750060    0.0900
     32 H32        -9.6319   -4.9304   59.9860 H       1  ZINC000787750060    0.0800
     33 H33       -10.6703   -6.0493   57.8493 H       1  ZINC000787750060    0.1800
     34 H34       -13.9995   -5.0481   55.1784 H       1  ZINC000787750060    0.0600
     35 H35       -14.8774   -4.4036   56.5873 H       1  ZINC000787750060    0.1000
     36 H36       -16.2679   -4.3677   54.5065 H       1  ZINC000787750060    0.1100
     37 H37       -15.9926   -2.7351   55.1619 H       1  ZINC000787750060    0.0700
     38 H38       -13.4753   -1.9811   52.6240 H       1  ZINC000787750060    0.1100
     39 H39       -14.3249   -1.3098   54.0378 H       1  ZINC000787750060    0.0600
     40 H40       -12.0456   -1.9833   54.6784 H       1  ZINC000787750060    0.1000
     41 H41       -12.3365   -3.6267   54.0573 H       1  ZINC000787750060    0.0700
     42 H42        -7.9653   -1.5294   63.6583 H       1  ZINC000787750060    0.4000
     43 H43        -7.7595    0.9640   64.5949 H       1  ZINC000787750060    0.0700
     44 H44        -9.3929    1.0014   65.3012 H       1  ZINC000787750060    0.0700
     45 H45        -8.6100   -0.5584   64.9516 H       1  ZINC000787750060    0.0800
@<TRIPOS>BOND
     1     1     2    1
     2     1    25    1
     3     1    26    1
     4     1    27    1
     5     2    23   ar
     6     2     3   ar
     7     3     4   ar
     8     3    28    1
     9     4     5   ar
    10     4    29    1
    11     5     6    1
    12     5    21   ar
    13     6     7    2
    14     6     8   am
    15     8     9    1
    16     8    30    1
    17     9    10    1
    18     9    31    1
    19     9    32    1
    20    10    20    1
    21    10    11    2
    22    11    12    1
    23    11    33    1
    24    12    13    2
    25    13    14    1
    26    13    20    1
    27    14    19    1
    28    14    15    1
    29    15    16    1
    30    15    34    1
    31    15    35    1
    32    16    17    1
    33    16    36    1
    34    16    37    1
    35    17    18    1
    36    18    19    1
    37    18    38    1
    38    18    39    1
    39    19    40    1
    40    19    41    1
    41    21    22    1
    42    21    23   ar
    43    22    42    1
    44    23    24    1
    45    24    43    1
    46    24    44    1
    47    24    45    1
@<TRIPOS>SUBSTRUCTURE
     1 ZINC000787750060        1 TEMP              0 ****  ****    0 ROOT


##########                                Name:    ZINC001139743874
##########                DOCK_Rotatable_Bonds:                   5
##########                         Heavy_Atoms:                  28
##########                    Molecular_Weight:             382.506
##########                DOCK_Rotatable_Bonds:                   5
##########                       Formal_Charge:           0.0199992
##########                     HBond_Acceptors:                   6
##########                        HBond_Donors:                   0
##########                         Heavy_Atoms:                  28
##########                          Grid_Score:          -34.209755
##########                     Grid_vdw_energy:          -34.451508
##########                      Grid_es_energy:            0.241751
##########           Internal_energy_repulsive:           19.152891

@<TRIPOS>MOLECULE
ZINC001139743874
 58 61 1 0 0
SMALL
USER_CHARGES


@<TRIPOS>ATOM
      1 C1        -10.7496    2.5321   62.8139 C.3     1  ZINC001139743874   -0.1800
      2 C2        -10.2540    1.0879   62.9136 C.3     1  ZINC001139743874    0.1400
      3 C3         -9.3642    0.9382   64.1492 C.3     1  ZINC001139743874   -0.1800
      4 C4        -11.4527    0.1445   63.0310 C.3     1  ZINC001139743874   -0.1400
      5 O5         -9.4906    0.7551   61.7242 O.3     1  ZINC001139743874   -0.3600
      6 C6         -9.2606   -0.5509   61.4911 C.2     1  ZINC001139743874    0.6500
      7 O7         -8.9183   -1.2794   62.4015 O.2     1  ZINC001139743874   -0.5700
      8 N8         -9.4098   -1.0501   60.2482 N.am    1  ZINC001139743874   -0.5900
      9 C9         -9.8114   -0.2080   59.1664 C.3     1  ZINC001139743874    0.1000
     10 C10       -11.3452   -0.0187   58.9913 C.3     1  ZINC001139743874   -0.1300
     11 C11       -12.0626   -1.3767   59.2417 C.3     1  ZINC001139743874   -0.0900
     12 C12       -11.2875   -2.5254   58.6848 C.3     1  ZINC001139743874   -0.0800
     13 C13       -12.0931   -3.5398   57.8644 C.3     1  ZINC001139743874    0.0100
     14 N14       -11.6889   -2.7455   56.6817 N.3     1  ZINC001139743874   -0.4700
     15 C15       -11.2979   -3.6207   55.5686 C.3     1  ZINC001139743874    0.0600
     16 C16       -11.9302   -3.1248   54.2937 C.ar    1  ZINC001139743874   -0.1200
     17 C17       -11.1538   -2.9635   53.1478 C.ar    1  ZINC001139743874    0.1500
     18 N18       -11.6708   -2.5345   52.0219 N.ar    1  ZINC001139743874   -0.4600
     19 C19       -12.9677   -2.2331   51.9247 C.ar    1  ZINC001139743874    0.0800
     20 C20       -13.5205   -1.7726   50.7128 C.ar    1  ZINC001139743874   -0.0400
     21 C21       -14.8538   -1.4822   50.6804 C.ar    1  ZINC001139743874   -0.1600
     22 C22       -15.6305   -1.6434   51.8267 C.ar    1  ZINC001139743874    0.1300
     23 N23       -15.1135   -2.0719   52.9526 N.ar    1  ZINC001139743874   -0.4700
     24 C24       -13.8164   -2.3735   53.0497 C.ar    1  ZINC001139743874    0.0800
     25 C25       -13.2648   -2.8389   54.2599 C.ar    1  ZINC001139743874   -0.0400
     26 C26       -10.4982   -2.2390   57.4021 C.3     1  ZINC001139743874    0.0000
     27 C27       -10.4464   -3.1640   59.7943 C.3     1  ZINC001139743874   -0.1300
     28 C28        -9.1523   -2.4983   59.9692 C.3     1  ZINC001139743874    0.1400
     29 H29        -9.8956    3.2043   62.7304 H       1  ZINC001139743874    0.0900
     30 H30       -11.3834    2.6387   61.9337 H       1  ZINC001139743874    0.0600
     31 H31       -11.3226    2.7820   63.7068 H       1  ZINC001139743874    0.0700
     32 H32        -9.9373    1.1881   65.0421 H       1  ZINC001139743874    0.0700
     33 H33        -9.0113   -0.0906   64.2203 H       1  ZINC001139743874    0.0600
     34 H34        -8.5102    1.6104   64.0657 H       1  ZINC001139743874    0.0900
     35 H35       -12.0866    0.2511   62.1507 H       1  ZINC001139743874    0.0700
     36 H36       -11.0997   -0.8843   63.1020 H       1  ZINC001139743874    0.0700
     37 H37       -12.0258    0.3944   63.9239 H       1  ZINC001139743874    0.0800
     38 H38        -9.3612    0.7738   59.3133 H       1  ZINC001139743874    0.0700
     39 H39        -9.4117   -0.6259   58.2425 H       1  ZINC001139743874    0.0900
     40 H40       -11.7047    0.7204   59.7073 H       1  ZINC001139743874    0.0700
     41 H41       -11.5562    0.3229   57.9779 H       1  ZINC001139743874    0.0800
     42 H42       -12.1871   -1.5196   60.3151 H       1  ZINC001139743874    0.0600
     43 H43       -13.0458   -1.3508   58.7720 H       1  ZINC001139743874    0.0700
     44 H44       -11.6779   -4.5474   57.8805 H       1  ZINC001139743874    0.0700
     45 H45       -13.1643   -3.5161   58.0649 H       1  ZINC001139743874    0.0900
     46 H46       -10.2130   -3.6120   55.4633 H       1  ZINC001139743874    0.0600
     47 H47       -11.6353   -4.6374   55.7699 H       1  ZINC001139743874    0.0900
     48 H48       -10.1003   -3.1975   53.1882 H       1  ZINC001139743874    0.1700
     49 H49       -12.9055   -1.6523   49.8332 H       1  ZINC001139743874    0.1500
     50 H50       -15.3072   -1.1273   49.7667 H       1  ZINC001139743874    0.1500
     51 H51       -16.6840   -1.4091   51.7865 H       1  ZINC001139743874    0.1700
     52 H52       -13.8807   -2.9625   55.1384 H       1  ZINC001139743874    0.1400
     53 H53       -10.3003   -1.1802   57.2346 H       1  ZINC001139743874    0.1000
     54 H54        -9.6128   -2.8633   57.2819 H       1  ZINC001139743874    0.0700
     55 H55       -11.0008   -3.1126   60.7313 H       1  ZINC001139743874    0.0700
     56 H56       -10.2722   -4.2111   59.5466 H       1  ZINC001139743874    0.0800
     57 H57        -8.5600   -2.6022   59.0601 H       1  ZINC001139743874    0.0800
     58 H58        -8.6196   -2.9456   60.8082 H       1  ZINC001139743874    0.1000
@<TRIPOS>BOND
     1     1     2    1
     2     1    29    1
     3     1    30    1
     4     1    31    1
     5     2     3    1
     6     2     4    1
     7     2     5    1
     8     3    32    1
     9     3    33    1
    10     3    34    1
    11     4    35    1
    12     4    36    1
    13     4    37    1
    14     5     6    1
    15     6     7    2
    16     6     8   am
    17     8    28    1
    18     8     9    1
    19     9    10    1
    20     9    38    1
    21     9    39    1
    22    10    11    1
    23    10    40    1
    24    10    41    1
    25    11    12    1
    26    11    42    1
    27    11    43    1
    28    12    26    1
    29    12    13    1
    30    12    27    1
    31    13    14    1
    32    13    44    1
    33    13    45    1
    34    14    15    1
    35    14    26    1
    36    15    16    1
    37    15    46    1
    38    15    47    1
    39    16    25   ar
    40    16    17   ar
    41    17    18   ar
    42    17    48    1
    43    18    19   ar
    44    19    24   ar
    45    19    20   ar
    46    20    21   ar
    47    20    49    1
    48    21    22   ar
    49    21    50    1
    50    22    23   ar
    51    22    51    1
    52    23    24   ar
    53    24    25   ar
    54    25    52    1
    55    26    53    1
    56    26    54    1
    57    27    28    1
    58    27    55    1
    59    27    56    1
    60    28    57    1
    61    28    58    1
@<TRIPOS>SUBSTRUCTURE
     1 ZINC001139743874        1 TEMP              0 ****  ****    0 ROOT


##########                                Name:    ZINC000470948647
##########                DOCK_Rotatable_Bonds:                   6
##########                         Heavy_Atoms:                  29
##########                    Molecular_Weight:             412.556
##########                DOCK_Rotatable_Bonds:                   6
##########                       Formal_Charge:           0.0100001
##########                     HBond_Acceptors:                   7
##########                        HBond_Donors:                   1
##########                         Heavy_Atoms:                  29
##########                          Grid_Score:          -34.195145
##########                     Grid_vdw_energy:          -32.582226
##########                      Grid_es_energy:           -1.612920
##########           Internal_energy_repulsive:           22.413692

@<TRIPOS>MOLECULE
ZINC000470948647
 57 60 1 0 0
SMALL
USER_CHARGES


@<TRIPOS>ATOM
      1 C1        -10.2834   -0.6324   60.6482 C.3     1  ZINC000470948647   -0.1100
      2 C2         -9.9803   -0.2606   59.2197 C.ar    1  ZINC000470948647   -0.1000
      3 C3        -10.1671   -1.1877   58.2111 C.ar    1  ZINC000470948647   -0.1100
      4 C4         -9.8902   -0.8500   56.9006 C.ar    1  ZINC000470948647   -0.1100
      5 C5         -9.4241    0.4221   56.5966 C.ar    1  ZINC000470948647    0.1400
      6 N6         -9.1430    0.7674   55.2701 N.am    1  ZINC000470948647   -0.6700
      7 C7        -10.1299    0.7751   54.3523 C.2     1  ZINC000470948647    0.5100
      8 O8        -11.2616    0.4827   54.6761 O.2     1  ZINC000470948647   -0.4800
      9 C9         -9.8272    1.1471   52.9235 C.3     1  ZINC000470948647    0.1200
     10 H10       -10.7532    1.1122   52.3497 H       1  ZINC000470948647    0.1200
     11 C11        -9.2769    2.5911   52.8919 C.3     1  ZINC000470948647   -0.0700
     12 S12        -7.4617    2.2851   52.8269 S.3     1  ZINC000470948647   -0.2500
     13 C13        -7.6315    0.7252   51.8646 C.3     1  ZINC000470948647    0.1600
     14 N14        -8.8986    0.1717   52.3729 N.am    1  ZINC000470948647   -0.6000
     15 C15        -9.1810   -1.1455   52.3292 C.2     1  ZINC000470948647    0.6300
     16 O16        -8.3751   -1.9246   51.8584 O.2     1  ZINC000470948647   -0.5100
     17 C17       -10.4694   -1.6425   52.8533 C.2     1  ZINC000470948647   -0.0100
     18 N18       -10.6487   -2.3531   53.9489 N.2     1  ZINC000470948647   -0.2700
     19 N19       -11.8967   -2.6143   54.1056 N.pl3   1  ZINC000470948647   -0.2700
     20 C20       -12.4582   -3.3852   55.2177 C.3     1  ZINC000470948647    0.1500
     21 C21       -13.2685   -2.4566   56.1243 C.3     1  ZINC000470948647   -0.1300
     22 C22       -13.8549   -3.2617   57.2857 C.3     1  ZINC000470948647   -0.1200
     23 C23       -14.7665   -4.3604   56.7356 C.3     1  ZINC000470948647   -0.1300
     24 C24       -13.9562   -5.2891   55.8290 C.3     1  ZINC000470948647   -0.1200
     25 C25       -13.3698   -4.4840   54.6676 C.3     1  ZINC000470948647   -0.1300
     26 C26       -12.6166   -2.0760   53.0979 C.2     1  ZINC000470948647   -0.0100
     27 C27       -11.7465   -1.4410   52.2783 C.2     1  ZINC000470948647   -0.1700
     28 C28        -9.2378    1.3513   57.6121 C.ar    1  ZINC000470948647   -0.1100
     29 C29        -8.7325    2.7332   57.2866 C.3     1  ZINC000470948647   -0.1100
     30 C30        -9.5211    1.0090   58.9196 C.ar    1  ZINC000470948647   -0.1000
     31 H31       -11.3250   -0.4005   60.8708 H       1  ZINC000470948647    0.0700
     32 H32       -10.1101   -1.6990   60.7907 H       1  ZINC000470948647    0.0700
     33 H33        -9.6344   -0.0664   61.3166 H       1  ZINC000470948647    0.0700
     34 H34       -10.5297   -2.1769   58.4481 H       1  ZINC000470948647    0.1200
     35 H35       -10.0357   -1.5748   56.1133 H       1  ZINC000470948647    0.1400
     36 H36        -8.2379    1.0014   55.0111 H       1  ZINC000470948647    0.4100
     37 H37        -9.6170    3.1202   52.0017 H       1  ZINC000470948647    0.1200
     38 H38        -9.5504    3.1342   53.7965 H       1  ZINC000470948647    0.1200
     39 H39        -7.7002    0.9351   50.7972 H       1  ZINC000470948647    0.1000
     40 H40        -6.8025    0.0493   52.0743 H       1  ZINC000470948647    0.1400
     41 H41       -11.6492   -3.8377   55.7912 H       1  ZINC000470948647    0.1100
     42 H42       -12.6190   -1.6738   56.5161 H       1  ZINC000470948647    0.0800
     43 H43       -14.0776   -2.0041   55.5508 H       1  ZINC000470948647    0.0800
     44 H44       -13.0459   -3.7142   57.8591 H       1  ZINC000470948647    0.0700
     45 H45       -14.4322   -2.6001   57.9315 H       1  ZINC000470948647    0.0800
     46 H46       -15.1843   -4.9340   57.5629 H       1  ZINC000470948647    0.0700
     47 H47       -15.5756   -3.9080   56.1621 H       1  ZINC000470948647    0.0700
     48 H48       -13.1472   -5.7415   56.4025 H       1  ZINC000470948647    0.0700
     49 H49       -14.6057   -6.0718   55.4371 H       1  ZINC000470948647    0.0700
     50 H50       -14.1789   -4.0315   54.0941 H       1  ZINC000470948647    0.0700
     51 H51       -12.7925   -5.1456   54.0218 H       1  ZINC000470948647    0.0700
     52 H52       -13.6875   -2.1367   52.9721 H       1  ZINC000470948647    0.1800
     53 H53       -11.9775   -0.9005   51.3723 H       1  ZINC000470948647    0.1600
     54 H54        -9.5781    3.3918   57.0879 H       1  ZINC000470948647    0.0700
     55 H55        -8.1618    3.1196   58.1310 H       1  ZINC000470948647    0.0700
     56 H56        -8.0925    2.6879   56.4055 H       1  ZINC000470948647    0.0600
     57 H57        -9.3768    1.7312   59.7095 H       1  ZINC000470948647    0.1300
@<TRIPOS>BOND
     1     1     2    1
     2     1    31    1
     3     1    32    1
     4     1    33    1
     5     2    30   ar
     6     2     3   ar
     7     3     4   ar
     8     3    34    1
     9     4     5   ar
    10     4    35    1
    11     5     6    1
    12     5    28   ar
    13     6     7   am
    14     6    36    1
    15     7     8    2
    16     7     9    1
    17     9    10    1
    18     9    14    1
    19     9    11    1
    20    11    12    1
    21    11    37    1
    22    11    38    1
    23    12    13    1
    24    13    14    1
    25    13    39    1
    26    13    40    1
    27    14    15   am
    28    15    16    2
    29    15    17    1
    30    17    27    1
    31    17    18    2
    32    18    19    1
    33    19    20    1
    34    19    26    1
    35    20    25    1
    36    20    21    1
    37    20    41    1
    38    21    22    1
    39    21    42    1
    40    21    43    1
    41    22    23    1
    42    22    44    1
    43    22    45    1
    44    23    24    1
    45    23    46    1
    46    23    47    1
    47    24    25    1
    48    24    48    1
    49    24    49    1
    50    25    50    1
    51    25    51    1
    52    26    27    2
    53    26    52    1
    54    27    53    1
    55    28    29    1
    56    28    30   ar
    57    29    54    1
    58    29    55    1
    59    29    56    1
    60    30    57    1
@<TRIPOS>SUBSTRUCTURE
     1 ZINC000470948647        1 TEMP              0 ****  ****    0 ROOT


##########                                Name:    ZINC000971513996
##########                DOCK_Rotatable_Bonds:                   6
##########                         Heavy_Atoms:                  27
##########                    Molecular_Weight:             369.464
##########                DOCK_Rotatable_Bonds:                   6
##########                       Formal_Charge:          -0.0300002
##########                     HBond_Acceptors:                   6
##########                        HBond_Donors:                   1
##########                         Heavy_Atoms:                  27
##########                          Grid_Score:          -34.177876
##########                     Grid_vdw_energy:          -33.515217
##########                      Grid_es_energy:           -0.662658
##########           Internal_energy_repulsive:           19.647451

@<TRIPOS>MOLECULE
ZINC000971513996
 54 57 1 0 0
SMALL
USER_CHARGES


@<TRIPOS>ATOM
      1 C1        -14.2369   -1.4565   62.4127 C.3     1  ZINC000971513996   -0.1600
      2 C2        -13.9192   -1.9652   61.0051 C.3     1  ZINC000971513996   -0.1400
      3 C3        -13.8071   -0.7777   60.0469 C.3     1  ZINC000971513996    0.0800
      4 H4        -14.7117   -0.7120   59.4424 H       1  ZINC000971513996    0.0800
      5 O5        -13.6477    0.4274   60.7983 O.3     1  ZINC000971513996   -0.3600
      6 C6        -13.6812    1.6156   60.0052 C.3     1  ZINC000971513996    0.0200
      7 C7        -12.6141   -0.9696   59.1464 C.2     1  ZINC000971513996    0.5400
      8 O8        -12.7747   -1.1630   57.9600 O.2     1  ZINC000971513996   -0.5100
      9 N9        -11.3686   -0.9264   59.6595 N.am    1  ZINC000971513996   -0.6400
     10 C10       -10.7661   -0.7243   60.9883 C.3     1  ZINC000971513996    0.1000
     11 C11        -9.5852   -1.5928   60.5136 C.3     1  ZINC000971513996   -0.1200
     12 H12        -8.6037   -1.2633   60.8546 H       1  ZINC000971513996    0.1100
     13 C13        -9.8554   -3.0806   60.7514 C.3     1  ZINC000971513996   -0.1200
     14 C14        -9.2889   -3.8891   59.5805 C.3     1  ZINC000971513996    0.1100
     15 N15        -9.9246   -3.4179   58.3472 N.am    1  ZINC000971513996   -0.6000
     16 C16       -10.5784   -4.2914   57.5561 C.2     1  ZINC000971513996    0.5900
     17 O17       -10.6392   -5.4659   57.8670 O.2     1  ZINC000971513996   -0.5200
     18 C18       -11.2185   -3.8247   56.3170 C.2     1  ZINC000971513996    0.0200
     19 C19       -12.5525   -3.6359   56.1426 C.2     1  ZINC000971513996   -0.1000
     20 C20       -12.7542   -3.1836   54.8161 C.ar    1  ZINC000971513996   -0.1100
     21 C21       -13.8941   -2.8316   54.0824 C.ar    1  ZINC000971513996   -0.0600
     22 C22       -13.7680   -2.4219   52.7868 C.ar    1  ZINC000971513996   -0.1200
     23 C23       -14.9967   -2.0440   52.0003 C.3     1  ZINC000971513996   -0.1100
     24 C24       -12.5176   -2.3494   52.1864 C.ar    1  ZINC000971513996   -0.0800
     25 C25       -11.3818   -2.6900   52.8867 C.ar    1  ZINC000971513996   -0.1300
     26 C26       -11.4846   -3.1114   54.2093 C.ar    1  ZINC000971513996    0.1100
     27 N27       -10.5584   -3.5027   55.1469 N.pl3   1  ZINC000971513996   -0.5800
     28 C28        -9.8557   -2.0123   57.9695 C.3     1  ZINC000971513996    0.0700
     29 C29       -10.0029   -1.0656   59.1489 C.3     1  ZINC000971513996    0.1300
     30 H30        -9.5572   -0.0944   58.9338 H       1  ZINC000971513996    0.1100
     31 H31       -14.4194   -2.3044   63.0729 H       1  ZINC000971513996    0.0600
     32 H32       -13.3932   -0.8780   62.7891 H       1  ZINC000971513996    0.0600
     33 H33       -15.1245   -0.8247   62.3790 H       1  ZINC000971513996    0.0600
     34 H34       -12.9753   -2.5102   61.0203 H       1  ZINC000971513996    0.0800
     35 H35       -14.7164   -2.6285   60.6699 H       1  ZINC000971513996    0.0800
     36 H36       -12.8192    1.6315   59.3381 H       1  ZINC000971513996    0.0400
     37 H37       -14.5975    1.6330   59.4153 H       1  ZINC000971513996    0.0500
     38 H38       -13.6521    2.4885   60.6573 H       1  ZINC000971513996    0.0900
     39 H39       -10.4916    0.3113   61.1887 H       1  ZINC000971513996    0.0900
     40 H40       -11.3391   -1.1745   61.7989 H       1  ZINC000971513996    0.0800
     41 H41        -9.3740   -3.3946   61.6775 H       1  ZINC000971513996    0.0900
     42 H42       -10.9300   -3.2485   60.8235 H       1  ZINC000971513996    0.0700
     43 H43        -8.2109   -3.7402   59.5185 H       1  ZINC000971513996    0.0800
     44 H44        -9.5066   -4.9473   59.7252 H       1  ZINC000971513996    0.1000
     45 H45       -13.3214   -3.8011   56.8829 H       1  ZINC000971513996    0.1500
     46 H46       -14.8706   -2.8848   54.5407 H       1  ZINC000971513996    0.1200
     47 H47       -15.1967   -0.9801   52.1277 H       1  ZINC000971513996    0.0700
     48 H48       -14.8325   -2.2590   50.9444 H       1  ZINC000971513996    0.0600
     49 H49       -15.8496   -2.6196   52.3599 H       1  ZINC000971513996    0.0600
     50 H50       -12.4352   -2.0231   51.1602 H       1  ZINC000971513996    0.1300
     51 H51       -10.4140   -2.6308   52.4110 H       1  ZINC000971513996    0.1200
     52 H52        -9.5992   -3.5465   55.0092 H       1  ZINC000971513996    0.4200
     53 H53        -8.8907   -1.8219   57.4998 H       1  ZINC000971513996    0.0800
     54 H54       -10.6432   -1.8044   57.2452 H       1  ZINC000971513996    0.1200
@<TRIPOS>BOND
     1     1     2    1
     2     1    31    1
     3     1    32    1
     4     1    33    1
     5     2     3    1
     6     2    34    1
     7     2    35    1
     8     3     4    1
     9     3     5    1
    10     3     7    1
    11     5     6    1
    12     6    36    1
    13     6    37    1
    14     6    38    1
    15     7     8    2
    16     7     9   am
    17     9    29    1
    18     9    10    1
    19    10    11    1
    20    10    39    1
    21    10    40    1
    22    11    12    1
    23    11    29    1
    24    11    13    1
    25    13    14    1
    26    13    41    1
    27    13    42    1
    28    14    15    1
    29    14    43    1
    30    14    44    1
    31    15    16   am
    32    15    28    1
    33    16    17    2
    34    16    18    1
    35    18    27    1
    36    18    19    2
    37    19    20    1
    38    19    45    1
    39    20    26   ar
    40    20    21   ar
    41    21    22   ar
    42    21    46    1
    43    22    23    1
    44    22    24   ar
    45    23    47    1
    46    23    48    1
    47    23    49    1
    48    24    25   ar
    49    24    50    1
    50    25    26   ar
    51    25    51    1
    52    26    27    1
    53    27    52    1
    54    28    29    1
    55    28    53    1
    56    28    54    1
    57    29    30    1
@<TRIPOS>SUBSTRUCTURE
     1 ZINC000971513996        1 TEMP              0 ****  ****    0 ROOT


##########                                Name:    ZINC000811540126
##########                DOCK_Rotatable_Bonds:                   7
##########                         Heavy_Atoms:                  21
##########                    Molecular_Weight:             397.212
##########                DOCK_Rotatable_Bonds:                   7
##########                       Formal_Charge:           0.0100001
##########                     HBond_Acceptors:                   4
##########                        HBond_Donors:                   3
##########                         Heavy_Atoms:                  21
##########                          Grid_Score:          -34.127300
##########                     Grid_vdw_energy:          -33.346352
##########                      Grid_es_energy:           -0.780947
##########           Internal_energy_repulsive:           10.252150

@<TRIPOS>MOLECULE
ZINC000811540126
 37 38 1 0 0
SMALL
USER_CHARGES


@<TRIPOS>ATOM
      1 C1        -12.1949   -1.4199   60.7259 C.3     1  ZINC000811540126   -0.1600
      2 C2        -11.1548   -2.1753   59.8960 C.3     1  ZINC000811540126    0.1200
      3 H3        -10.9098   -3.1159   60.3894 H       1  ZINC000811540126    0.1000
      4 N4        -11.6988   -2.4499   58.5637 N.am    1  ZINC000811540126   -0.7200
      5 C5        -11.4215   -3.6174   57.9502 C.2     1  ZINC000811540126    0.5700
      6 O6        -10.7186   -4.4421   58.5018 O.2     1  ZINC000811540126   -0.5100
      7 C7        -11.9707   -3.8947   56.6093 C.ar    1  ZINC000811540126   -0.1600
      8 C8        -11.3672   -3.3455   55.4757 C.ar    1  ZINC000811540126   -0.0400
      9 C9        -11.8856   -3.6086   54.2254 C.ar    1  ZINC000811540126   -0.1200
     10 I10       -10.9793   -2.7841   52.5261 I       1  ZINC000811540126   -0.0300
     11 C11       -13.0030   -4.4161   54.0879 C.ar    1  ZINC000811540126   -0.0400
     12 C12       -13.6093   -4.9649   55.2007 C.ar    1  ZINC000811540126   -0.1500
     13 C13       -13.0979   -4.7155   56.4652 C.ar    1  ZINC000811540126    0.1900
     14 O14       -13.6924   -5.2545   57.5591 O.3     1  ZINC000811540126   -0.4700
     15 C15        -9.8906   -1.3236   59.7650 C.3     1  ZINC000811540126    0.1400
     16 H16       -10.0403   -0.5670   58.9948 H       1  ZINC000811540126    0.1300
     17 O17        -8.7886   -2.1588   59.4044 O.3     1  ZINC000811540126   -0.5400
     18 C18        -9.6003   -0.6496   61.0814 C.ar    1  ZINC000811540126   -0.1200
     19 C19        -9.9212    0.6828   61.2613 C.ar    1  ZINC000811540126   -0.1100
     20 C20        -9.6549    1.3010   62.4687 C.ar    1  ZINC000811540126   -0.1100
     21 C21        -9.0681    0.5865   63.4964 C.ar    1  ZINC000811540126   -0.1200
     22 C22        -8.7479   -0.7462   63.3167 C.ar    1  ZINC000811540126   -0.1100
     23 C23        -9.0182   -1.3655   62.1108 C.ar    1  ZINC000811540126   -0.1100
     24 H24       -13.0956   -2.0266   60.8192 H       1  ZINC000811540126    0.0600
     25 H25       -11.7901   -1.2155   61.7170 H       1  ZINC000811540126    0.0700
     26 H26       -12.4399   -0.4793   60.2325 H       1  ZINC000811540126    0.0700
     27 H27       -12.2586   -1.7915   58.1233 H       1  ZINC000811540126    0.3900
     28 H28       -10.4961   -2.7155   55.5784 H       1  ZINC000811540126    0.1300
     29 H29       -13.4023   -4.6174   53.1049 H       1  ZINC000811540126    0.1400
     30 H30       -14.4802   -5.5932   55.0855 H       1  ZINC000811540126    0.1500
     31 H31       -14.0452   -6.1435   57.4172 H       1  ZINC000811540126    0.4000
     32 H32        -7.9773   -1.6735   59.2012 H       1  ZINC000811540126    0.3700
     33 H33       -10.3797    1.2410   60.4584 H       1  ZINC000811540126    0.1100
     34 H34        -9.9050    2.3422   62.6090 H       1  ZINC000811540126    0.1200
     35 H35        -8.8593    1.0697   64.4394 H       1  ZINC000811540126    0.1200
     36 H36        -8.2892   -1.3043   64.1196 H       1  ZINC000811540126    0.1300
     37 H37        -8.7681   -2.4067   61.9704 H       1  ZINC000811540126    0.1200
@<TRIPOS>BOND
     1     1     2    1
     2     1    24    1
     3     1    25    1
     4     1    26    1
     5     2     3    1
     6     2     4    1
     7     2    15    1
     8     4     5   am
     9     4    27    1
    10     5     6    2
    11     5     7    1
    12     7    13   ar
    13     7     8   ar
    14     8     9   ar
    15     8    28    1
    16     9    10    1
    17     9    11   ar
    18    11    12   ar
    19    11    29    1
    20    12    13   ar
    21    12    30    1
    22    13    14    1
    23    14    31    1
    24    15    16    1
    25    15    17    1
    26    15    18    1
    27    17    32    1
    28    18    23   ar
    29    18    19   ar
    30    19    20   ar
    31    19    33    1
    32    20    21   ar
    33    20    34    1
    34    21    22   ar
    35    21    35    1
    36    22    23   ar
    37    22    36    1
    38    23    37    1
@<TRIPOS>SUBSTRUCTURE
     1 ZINC000811540126        1 TEMP              0 ****  ****    0 ROOT


##########                                Name:    ZINC000541568816
##########                DOCK_Rotatable_Bonds:                   8
##########                         Heavy_Atoms:                  25
##########                    Molecular_Weight:             411.339
##########                DOCK_Rotatable_Bonds:                   8
##########                       Formal_Charge:          -0.0100007
##########                     HBond_Acceptors:                   5
##########                        HBond_Donors:                   1
##########                         Heavy_Atoms:                  25
##########                          Grid_Score:          -34.110031
##########                     Grid_vdw_energy:          -33.164917
##########                      Grid_es_energy:           -0.945112
##########           Internal_energy_repulsive:           16.605547

@<TRIPOS>MOLECULE
ZINC000541568816
 52 54 1 0 0
SMALL
USER_CHARGES


@<TRIPOS>ATOM
      1 C1         -7.2304    2.5885   57.0851 C.3     1  ZINC000541568816   -0.1500
      2 C2         -8.2958    1.6565   56.5043 C.3     1  ZINC000541568816    0.0600
      3 O3         -8.7225    0.7356   57.5101 O.3     1  ZINC000541568816   -0.3700
      4 C4         -9.7184   -0.1886   57.0671 C.3     1  ZINC000541568816    0.0700
      5 H5         -9.4471   -0.6908   56.1386 H       1  ZINC000541568816    0.0900
      6 C6        -11.1423    0.3950   57.0598 C.3     1  ZINC000541568816   -0.1700
      7 C7        -11.6194   -0.9618   57.6069 C.3     1  ZINC000541568816    0.1500
      8 H8        -12.3852   -0.8775   58.3780 H       1  ZINC000541568816    0.1100
      9 N9        -11.9681   -1.9271   56.5613 N.am    1  ZINC000541568816   -0.7200
     10 C10       -12.9687   -2.8071   56.7632 C.2     1  ZINC000541568816    0.7100
     11 O11       -13.5830   -2.7990   57.8124 O.2     1  ZINC000541568816   -0.5800
     12 N12       -13.2884   -3.6961   55.8020 N.am    1  ZINC000541568816   -0.6300
     13 C13       -14.3749   -4.6539   56.0220 C.3     1  ZINC000541568816    0.1000
     14 C14       -13.8534   -5.8379   56.8388 C.3     1  ZINC000541568816   -0.1800
     15 C15       -12.5493   -3.7046   54.5371 C.3     1  ZINC000541568816    0.1700
     16 C16       -13.1346   -2.6740   53.6064 C.ar    1  ZINC000541568816   -0.0700
     17 C17       -14.4566   -2.2942   53.7394 C.ar    1  ZINC000541568816   -0.1000
     18 C18       -14.9937   -1.3486   52.8856 C.ar    1  ZINC000541568816   -0.1000
     19 C19       -14.2086   -0.7824   51.8989 C.ar    1  ZINC000541568816   -0.1200
     20 C20       -12.8860   -1.1617   51.7651 C.ar    1  ZINC000541568816   -0.0900
     21 C21       -12.3469   -2.1038   52.6223 C.ar    1  ZINC000541568816   -0.0900
     22 Br22      -10.5378   -2.6231   52.4398 Br      1  ZINC000541568816   -0.0500
     23 C23       -10.2017   -1.1433   58.1634 C.3     1  ZINC000541568816    0.0800
     24 C24       -10.0052   -0.6225   59.5978 C.3     1  ZINC000541568816   -0.1200
     25 C25        -9.8488   -1.9424   60.4037 C.3     1  ZINC000541568816   -0.1600
     26 C26        -9.1231   -2.8379   59.3674 C.3     1  ZINC000541568816    0.0500
     27 O27        -9.6830   -2.4700   58.0946 O.3     1  ZINC000541568816   -0.3600
     28 H28        -7.6494    3.1390   57.9275 H       1  ZINC000541568816    0.0600
     29 H29        -6.3781    1.9996   57.4237 H       1  ZINC000541568816    0.0600
     30 H30        -6.9049    3.2910   56.3179 H       1  ZINC000541568816    0.0700
     31 H31        -9.1482    2.2455   56.1656 H       1  ZINC000541568816    0.0500
     32 H32        -7.8769    1.1061   55.6618 H       1  ZINC000541568816    0.0500
     33 H33       -11.2794    1.2200   57.7590 H       1  ZINC000541568816    0.1000
     34 H34       -11.5170    0.6190   56.0611 H       1  ZINC000541568816    0.0800
     35 H35       -11.4787   -1.9327   55.7239 H       1  ZINC000541568816    0.4000
     36 H36       -15.1845   -4.1664   56.5650 H       1  ZINC000541568816    0.0900
     37 H37       -14.7450   -5.0106   55.0608 H       1  ZINC000541568816    0.0700
     38 H38       -13.4832   -5.4813   57.8000 H       1  ZINC000541568816    0.0600
     39 H39       -14.6617   -6.5506   57.0025 H       1  ZINC000541568816    0.0700
     40 H40       -13.0436   -6.3254   56.2958 H       1  ZINC000541568816    0.0600
     41 H41       -11.5019   -3.4699   54.7267 H       1  ZINC000541568816    0.1000
     42 H42       -12.6235   -4.6912   54.0795 H       1  ZINC000541568816    0.1100
     43 H43       -15.0705   -2.7363   54.5102 H       1  ZINC000541568816    0.1300
     44 H44       -16.0272   -1.0524   52.9893 H       1  ZINC000541568816    0.1300
     45 H45       -14.6286   -0.0438   51.2322 H       1  ZINC000541568816    0.1300
     46 H46       -12.2727   -0.7196   50.9939 H       1  ZINC000541568816    0.1300
     47 H47        -9.1044   -0.0132   59.6706 H       1  ZINC000541568816    0.1000
     48 H48       -10.8794   -0.0638   59.9320 H       1  ZINC000541568816    0.0900
     49 H49        -9.2336   -1.7904   61.2905 H       1  ZINC000541568816    0.0900
     50 H50       -10.8210   -2.3578   60.6690 H       1  ZINC000541568816    0.0800
     51 H51        -8.0514   -2.6394   59.3807 H       1  ZINC000541568816    0.0600
     52 H52        -9.3163   -3.8902   59.5757 H       1  ZINC000541568816    0.0900
@<TRIPOS>BOND
     1     1     2    1
     2     1    28    1
     3     1    29    1
     4     1    30    1
     5     2     3    1
     6     2    31    1
     7     2    32    1
     8     3     4    1
     9     4     5    1
    10     4    23    1
    11     4     6    1
    12     6     7    1
    13     6    33    1
    14     6    34    1
    15     7     8    1
    16     7     9    1
    17     7    23    1
    18     9    10   am
    19     9    35    1
    20    10    11    2
    21    10    12   am
    22    12    13    1
    23    12    15    1
    24    13    14    1
    25    13    36    1
    26    13    37    1
    27    14    38    1
    28    14    39    1
    29    14    40    1
    30    15    16    1
    31    15    41    1
    32    15    42    1
    33    16    21   ar
    34    16    17   ar
    35    17    18   ar
    36    17    43    1
    37    18    19   ar
    38    18    44    1
    39    19    20   ar
    40    19    45    1
    41    20    21   ar
    42    20    46    1
    43    21    22    1
    44    23    27    1
    45    23    24    1
    46    24    25    1
    47    24    47    1
    48    24    48    1
    49    25    26    1
    50    25    49    1
    51    25    50    1
    52    26    27    1
    53    26    51    1
    54    26    52    1
@<TRIPOS>SUBSTRUCTURE
     1 ZINC000541568816        1 TEMP              0 ****  ****    0 ROOT


##########                                Name:    ZINC000504243286
##########                DOCK_Rotatable_Bonds:                   7
##########                         Heavy_Atoms:                  29
##########                    Molecular_Weight:             408.337
##########                DOCK_Rotatable_Bonds:                   7
##########                       Formal_Charge:           0.0299994
##########                     HBond_Acceptors:                  11
##########                        HBond_Donors:                   3
##########                         Heavy_Atoms:                  29
##########                          Grid_Score:          -34.103828
##########                     Grid_vdw_energy:          -33.361370
##########                      Grid_es_energy:           -0.742459
##########           Internal_energy_repulsive:           14.857697

@<TRIPOS>MOLECULE
ZINC000504243286
 44 46 1 0 0
SMALL
USER_CHARGES


@<TRIPOS>ATOM
      1 O1        -12.2655   -1.9964   56.7376 O.2     1  ZINC000504243286   -0.5200
      2 C2        -12.9141   -2.9720   57.0520 C.2     1  ZINC000504243286    0.5200
      3 C3        -14.0006   -3.4805   56.1398 C.3     1  ZINC000504243286   -0.1600
      4 C4        -13.4064   -4.4833   55.1487 C.3     1  ZINC000504243286    0.1300
      5 N5        -12.6043   -3.7686   54.1527 N.pl3   1  ZINC000504243286   -0.7200
      6 C6        -13.2306   -3.1244   53.0833 C.ar    1  ZINC000504243286    0.3100
      7 C7        -14.5960   -3.2785   52.8811 C.ar    1  ZINC000504243286   -0.1900
      8 C8        -15.2124   -2.6397   51.8229 C.ar    1  ZINC000504243286    0.0200
      9 C9        -14.4716   -1.8475   50.9653 C.ar    1  ZINC000504243286   -0.2400
     10 C10       -15.1476   -1.1516   49.8122 C.3     1  ZINC000504243286    0.5200
     11 F11       -14.4284    0.0004   49.4762 F       1  ZINC000504243286   -0.1700
     12 F12       -15.1920   -2.0117   48.7097 F       1  ZINC000504243286   -0.1700
     13 F13       -16.4501   -0.7975   50.1801 F       1  ZINC000504243286   -0.1700
     14 C14       -13.1117   -1.6918   51.1638 C.ar    1  ZINC000504243286    0.0400
     15 C15       -12.4902   -2.3234   52.2228 C.ar    1  ZINC000504243286   -0.1200
     16 N16       -11.0350   -2.1563   52.4344 N.pl3   1  ZINC000504243286    0.0400
     17 O17       -10.5894   -2.0743   53.5650 O.2     1  ZINC000504243286   -0.1700
     18 O18       -10.2829   -2.1008   51.4779 O.2     1  ZINC000504243286   -0.1400
     19 N19       -12.6593   -3.6045   58.2145 N.am    1  ZINC000504243286   -0.6700
     20 C20       -11.6494   -3.1318   59.0624 C.ar    1  ZINC000504243286    0.1200
     21 C21       -10.3749   -3.6793   59.0019 C.ar    1  ZINC000504243286   -0.1000
     22 C22        -9.3784   -3.2157   59.8349 C.ar    1  ZINC000504243286   -0.1200
     23 C23        -9.6434   -2.1941   60.7447 C.ar    1  ZINC000504243286    0.1300
     24 N24        -8.8148   -1.5667   61.6782 N.am    1  ZINC000504243286   -0.6600
     25 C25        -9.4614   -0.6166   62.3742 C.2     1  ZINC000504243286    0.5300
     26 O26        -8.9908    0.0844   63.2450 O.2     1  ZINC000504243286   -0.5000
     27 C27       -10.8875   -0.5849   61.8673 C.3     1  ZINC000504243286   -0.1200
     28 C28       -10.9220   -1.6525   60.7980 C.ar    1  ZINC000504243286   -0.1200
     29 C29       -11.9170   -2.1085   59.9645 C.ar    1  ZINC000504243286   -0.0600
     30 H30       -14.7732   -3.9699   56.7327 H       1  ZINC000504243286    0.1100
     31 H31       -14.4369   -2.6445   55.5932 H       1  ZINC000504243286    0.1100
     32 H32       -12.7743   -5.1919   55.6836 H       1  ZINC000504243286    0.0800
     33 H33       -14.2121   -5.0207   54.6485 H       1  ZINC000504243286    0.0900
     34 H34       -11.6382   -3.7427   54.2358 H       1  ZINC000504243286    0.4100
     35 H35       -15.1752   -3.8974   53.5504 H       1  ZINC000504243286    0.1600
     36 H36       -16.2741   -2.7593   51.6648 H       1  ZINC000504243286    0.1600
     37 H37       -12.5360   -1.0723   50.4920 H       1  ZINC000504243286    0.1600
     38 H38       -13.1752   -4.3871   58.4640 H       1  ZINC000504243286    0.4200
     39 H39       -10.1630   -4.4718   58.2995 H       1  ZINC000504243286    0.1400
     40 H40        -8.3893   -3.6462   59.7822 H       1  ZINC000504243286    0.1300
     41 H41        -7.8802   -1.7912   61.8089 H       1  ZINC000504243286    0.4100
     42 H42       -11.5837   -0.8264   62.6705 H       1  ZINC000504243286    0.1300
     43 H43       -11.1193    0.3908   61.4403 H       1  ZINC000504243286    0.1300
     44 H44       -12.9049   -1.6747   60.0134 H       1  ZINC000504243286    0.1500
@<TRIPOS>BOND
     1     1     2    2
     2     2     3    1
     3     2    19   am
     4     3     4    1
     5     3    30    1
     6     3    31    1
     7     4     5    1
     8     4    32    1
     9     4    33    1
    10     5     6    1
    11     5    34    1
    12     6    15   ar
    13     6     7   ar
    14     7     8   ar
    15     7    35    1
    16     8     9   ar
    17     8    36    1
    18     9    10    1
    19     9    14   ar
    20    10    11    1
    21    10    12    1
    22    10    13    1
    23    14    15   ar
    24    14    37    1
    25    15    16    1
    26    16    17    2
    27    16    18    2
    28    19    20    1
    29    19    38    1
    30    20    29   ar
    31    20    21   ar
    32    21    22   ar
    33    21    39    1
    34    22    23   ar
    35    22    40    1
    36    23    28   ar
    37    23    24    1
    38    24    25   am
    39    24    41    1
    40    25    26    2
    41    25    27    1
    42    27    28    1
    43    27    42    1
    44    27    43    1
    45    28    29   ar
    46    29    44    1
@<TRIPOS>SUBSTRUCTURE
     1 ZINC000504243286        1 TEMP              0 ****  ****    0 ROOT


##########                                Name:    ZINC000676204775
##########                DOCK_Rotatable_Bonds:                   4
##########                         Heavy_Atoms:                  25
##########                    Molecular_Weight:             359.452
##########                DOCK_Rotatable_Bonds:                   4
##########                       Formal_Charge:          0.00999978
##########                     HBond_Acceptors:                   8
##########                        HBond_Donors:                   2
##########                         Heavy_Atoms:                  25
##########                          Grid_Score:          -34.099766
##########                     Grid_vdw_energy:          -33.678032
##########                      Grid_es_energy:           -0.421733
##########           Internal_energy_repulsive:           15.051635

@<TRIPOS>MOLECULE
ZINC000676204775
 46 49 1 0 0
SMALL
USER_CHARGES


@<TRIPOS>ATOM
      1 C1        -11.0148   -2.3360   60.5929 C.3     1  ZINC000676204775   -0.1600
      2 C2         -9.9610   -2.6099   59.5179 C.3     1  ZINC000676204775    0.1600
      3 C3         -8.9700   -3.6568   60.0304 C.3     1  ZINC000676204775   -0.1600
      4 N4        -10.6170   -3.1097   58.3072 N.pl3   1  ZINC000676204775   -0.3900
      5 N5        -11.1835   -4.3797   58.1566 N.2     1  ZINC000676204775   -0.2500
      6 C6        -11.6848   -4.5072   56.9613 C.2     1  ZINC000676204775    0.0900
      7 C7        -11.4527   -3.2573   56.2449 C.ar    1  ZINC000676204775   -0.2100
      8 C8        -11.7556   -2.8041   54.9563 C.ar    1  ZINC000676204775    0.0800
      9 C9        -11.3906   -1.5435   54.5809 C.ar    1  ZINC000676204775   -0.7200
     10 S10       -11.7718   -0.9713   52.9586 S.o2    1  ZINC000676204775    2.6900
     11 O11       -12.4797   -2.0237   52.3179 O.2     1  ZINC000676204775   -0.9300
     12 O12       -12.2974    0.3403   53.1090 O.2     1  ZINC000676204775   -0.9600
     13 N13       -10.3377   -0.8100   52.1463 N.am    1  ZINC000676204775   -1.1100
     14 C14        -9.3094    0.1040   52.6497 C.3     1  ZINC000676204775    0.2400
     15 H15        -9.0800   -0.1366   53.6878 H       1  ZINC000676204775    0.1000
     16 C16        -9.8103    1.5504   52.5523 C.3     1  ZINC000676204775   -0.1200
     17 C17        -8.6608    2.5164   52.8476 C.3     1  ZINC000676204775   -0.1200
     18 C18        -7.6694    2.5146   51.6772 C.3     1  ZINC000676204775   -0.0400
     19 C19        -7.3148    1.0822   51.3626 C.2     1  ZINC000676204775   -0.2300
     20 C20        -6.2790    0.6184   50.6393 C.2     1  ZINC000676204775    0.0600
     21 N21        -6.3604   -0.7310   50.6267 N.pl3   1  ZINC000676204775   -0.4800
     22 N22        -7.4901   -1.1041   51.3707 N.2     1  ZINC000676204775   -0.2400
     23 C23        -8.0613   -0.0215   51.8101 C.2     1  ZINC000676204775    0.0500
     24 C24       -10.7216   -0.7073   55.4659 C.ar    1  ZINC000676204775    0.0100
     25 C25       -10.4148   -1.1271   56.7294 C.ar    1  ZINC000676204775   -0.1500
     26 C26       -10.7793   -2.4059   57.1425 C.ar    1  ZINC000676204775    0.1700
     27 H27       -11.7208   -1.5901   60.2279 H       1  ZINC000676204775    0.0600
     28 H28       -11.5475   -3.2587   60.8229 H       1  ZINC000676204775    0.0700
     29 H29       -10.5267   -1.9641   61.4937 H       1  ZINC000676204775    0.0800
     30 H30        -9.4283   -1.6871   59.2880 H       1  ZINC000676204775    0.1000
     31 H31        -9.5027   -4.5796   60.2603 H       1  ZINC000676204775    0.0700
     32 H32        -8.2193   -3.8520   59.2645 H       1  ZINC000676204775    0.0600
     33 H33        -8.4819   -3.2849   60.9312 H       1  ZINC000676204775    0.0800
     34 H34       -12.1831   -5.3819   56.5701 H       1  ZINC000676204775    0.2000
     35 H35       -12.2751   -3.4483   54.2624 H       1  ZINC000676204775    0.1500
     36 H36       -10.1785   -1.3208   51.3371 H       1  ZINC000676204775    0.4200
     37 H37       -10.1903    1.7355   51.5477 H       1  ZINC000676204775    0.0800
     38 H38       -10.6101    1.7066   53.2761 H       1  ZINC000676204775    0.0800
     39 H39        -9.0585    3.5221   52.9843 H       1  ZINC000676204775    0.0700
     40 H40        -8.1485    2.2032   53.7573 H       1  ZINC000676204775    0.0700
     41 H41        -8.1290    2.9796   50.8052 H       1  ZINC000676204775    0.0700
     42 H42        -6.7700    3.0633   51.9563 H       1  ZINC000676204775    0.0700
     43 H43        -5.5201    1.2161   50.1564 H       1  ZINC000676204775    0.1800
     44 H44        -5.7457   -1.3352   50.1816 H       1  ZINC000676204775    0.4400
     45 H45       -10.4403    0.2868   55.1511 H       1  ZINC000676204775    0.1500
     46 H46        -9.8944   -0.4670   57.4076 H       1  ZINC000676204775    0.1300
@<TRIPOS>BOND
     1     1     2    1
     2     1    27    1
     3     1    28    1
     4     1    29    1
     5     2     3    1
     6     2     4    1
     7     2    30    1
     8     3    31    1
     9     3    32    1
    10     3    33    1
    11     4    26    1
    12     4     5    1
    13     5     6    2
    14     6     7    1
    15     6    34    1
    16     7    26   ar
    17     7     8   ar
    18     8     9   ar
    19     8    35    1
    20     9    10    1
    21     9    24   ar
    22    10    11    2
    23    10    12    2
    24    10    13   am
    25    13    14    1
    26    13    36    1
    27    14    15    1
    28    14    23    1
    29    14    16    1
    30    16    17    1
    31    16    37    1
    32    16    38    1
    33    17    18    1
    34    17    39    1
    35    17    40    1
    36    18    19    1
    37    18    41    1
    38    18    42    1
    39    19    23    1
    40    19    20    2
    41    20    21    1
    42    20    43    1
    43    21    22    1
    44    21    44    1
    45    22    23    2
    46    24    25   ar
    47    24    45    1
    48    25    26   ar
    49    25    46    1
@<TRIPOS>SUBSTRUCTURE
     1 ZINC000676204775        1 TEMP              0 ****  ****    0 ROOT


##########                                Name:    ZINC001570985666
##########                DOCK_Rotatable_Bonds:                   7
##########                         Heavy_Atoms:                  26
##########                    Molecular_Weight:             357.415
##########                DOCK_Rotatable_Bonds:                   7
##########                       Formal_Charge:          -0.0100001
##########                     HBond_Acceptors:                   9
##########                        HBond_Donors:                   3
##########                         Heavy_Atoms:                  26
##########                          Grid_Score:          -34.080299
##########                     Grid_vdw_energy:          -33.373413
##########                      Grid_es_energy:           -0.706887
##########           Internal_energy_repulsive:           11.997087

@<TRIPOS>MOLECULE
ZINC001570985666
 49 52 1 0 0
SMALL
USER_CHARGES


@<TRIPOS>ATOM
      1 C1         -9.1024   -0.2819   57.9480 C.3     1  ZINC001570985666   -0.1600
      2 C2        -10.0889   -1.1273   58.7562 C.3     1  ZINC001570985666    0.1300
      3 H3        -11.0105   -0.5682   58.9176 H       1  ZINC001570985666    0.0800
      4 C4         -9.4626   -1.5103   60.1137 C.3     1  ZINC001570985666    0.1400
      5 H5         -8.3745   -1.4739   60.0604 H       1  ZINC001570985666    0.1100
      6 N6         -9.9570   -0.6336   61.1782 N.am    1  ZINC001570985666   -0.7200
      7 C7         -9.3628   -0.6413   62.3878 C.2     1  ZINC001570985666    0.6000
      8 O8         -8.4169   -1.3769   62.5961 O.2     1  ZINC001570985666   -0.5300
      9 C9         -9.8588    0.2416   63.4578 C.2     1  ZINC001570985666   -0.2300
     10 C10        -9.1093    1.1207   64.2093 C.2     1  ZINC001570985666    0.0700
     11 N11        -9.9318    1.7405   65.0789 N.pl3   1  ZINC001570985666   -0.5200
     12 C12       -11.2114    1.2748   64.9026 C.2     1  ZINC001570985666    0.0600
     13 C13       -12.4027    1.7088   65.6662 C.2     1  ZINC001570985666    0.2500
     14 N14       -13.6259    1.2249   65.5614 N.2     1  ZINC001570985666   -0.3100
     15 N15       -14.3751    1.8646   66.3923 N.pl3   1  ZINC001570985666   -0.2200
     16 N16       -13.6674    2.7376   67.0199 N.2     1  ZINC001570985666   -0.0400
     17 N17       -12.4486    2.6672   66.6042 N.2     1  ZINC001570985666   -0.2600
     18 C18       -11.2004    0.3533   63.9065 C.2     1  ZINC001570985666   -0.0600
     19 C19        -9.9536   -2.9669   60.3244 C.3     1  ZINC001570985666   -0.1500
     20 C20        -9.9400   -3.5125   58.8746 C.3     1  ZINC001570985666    0.1000
     21 N21       -10.3813   -2.3769   58.0387 N.am    1  ZINC001570985666   -0.6200
     22 C22       -10.9537   -2.4727   56.8223 C.2     1  ZINC001570985666    0.5300
     23 O23       -11.2764   -1.4688   56.2233 O.2     1  ZINC001570985666   -0.5300
     24 C24       -11.1927   -3.8272   56.2067 C.3     1  ZINC001570985666   -0.1300
     25 C25       -12.6974   -4.0641   56.0635 C.3     1  ZINC001570985666   -0.1000
     26 C26       -13.0965   -5.5478   56.1286 C.3     1  ZINC001570985666   -0.1300
     27 C27       -14.3096   -5.1037   56.9629 C.3     1  ZINC001570985666   -0.1400
     28 C28       -13.4780   -3.8778   57.3754 C.3     1  ZINC001570985666   -0.1400
     29 H29        -9.5491   -0.0201   56.9888 H       1  ZINC001570985666    0.0700
     30 H30        -8.8670    0.6281   58.4997 H       1  ZINC001570985666    0.0700
     31 H31        -8.1885   -0.8516   57.7798 H       1  ZINC001570985666    0.0600
     32 H32       -10.7121   -0.0477   61.0125 H       1  ZINC001570985666    0.4000
     33 H33        -8.0457    1.2844   64.1177 H       1  ZINC001570985666    0.1800
     34 H34        -9.6622    2.4097   65.7271 H       1  ZINC001570985666    0.4300
     35 H35       -15.3240    1.7123   66.5239 H       1  ZINC001570985666    0.4800
     36 H36       -12.0509   -0.1961   63.5308 H       1  ZINC001570985666    0.1600
     37 H37        -9.2635   -3.5240   60.9580 H       1  ZINC001570985666    0.0900
     38 H38       -10.9618   -2.9833   60.7386 H       1  ZINC001570985666    0.0800
     39 H39        -8.9330   -3.8219   58.5952 H       1  ZINC001570985666    0.0800
     40 H40       -10.6350   -4.3464   58.7766 H       1  ZINC001570985666    0.0800
     41 H41       -10.7235   -3.8675   55.2237 H       1  ZINC001570985666    0.0900
     42 H42       -10.7629   -4.5980   56.8464 H       1  ZINC001570985666    0.0900
     43 H43       -13.1313   -3.5305   55.2178 H       1  ZINC001570985666    0.1000
     44 H44       -13.3638   -5.9709   55.1602 H       1  ZINC001570985666    0.0700
     45 H45       -12.3893   -6.1663   56.6813 H       1  ZINC001570985666    0.0800
     46 H46       -15.1850   -4.8557   56.3628 H       1  ZINC001570985666    0.0800
     47 H47       -14.5390   -5.7744   57.7910 H       1  ZINC001570985666    0.0700
     48 H48       -12.8750   -4.0397   58.2689 H       1  ZINC001570985666    0.0800
     49 H49       -14.0532   -2.9527   57.4136 H       1  ZINC001570985666    0.0700
@<TRIPOS>BOND
     1     1     2    1
     2     1    29    1
     3     1    30    1
     4     1    31    1
     5     2     3    1
     6     2    21    1
     7     2     4    1
     8     4     5    1
     9     4     6    1
    10     4    19    1
    11     6     7   am
    12     6    32    1
    13     7     8    2
    14     7     9    1
    15     9    18    1
    16     9    10    2
    17    10    11    1
    18    10    33    1
    19    11    12    1
    20    11    34    1
    21    12    13    1
    22    12    18    2
    23    13    17    1
    24    13    14    2
    25    14    15    1
    26    15    16    1
    27    15    35    1
    28    16    17    2
    29    18    36    1
    30    19    20    1
    31    19    37    1
    32    19    38    1
    33    20    21    1
    34    20    39    1
    35    20    40    1
    36    21    22   am
    37    22    23    2
    38    22    24    1
    39    24    25    1
    40    24    41    1
    41    24    42    1
    42    25    28    1
    43    25    26    1
    44    25    43    1
    45    26    27    1
    46    26    44    1
    47    26    45    1
    48    27    28    1
    49    27    46    1
    50    27    47    1
    51    28    48    1
    52    28    49    1
@<TRIPOS>SUBSTRUCTURE
     1 ZINC001570985666        1 TEMP              0 ****  ****    0 ROOT


##########                                Name:    ZINC000195331548
##########                DOCK_Rotatable_Bonds:                   7
##########                         Heavy_Atoms:                  26
##########                    Molecular_Weight:             378.539
##########                DOCK_Rotatable_Bonds:                   7
##########                       Formal_Charge:          -0.0100004
##########                     HBond_Acceptors:                   7
##########                        HBond_Donors:                   2
##########                         Heavy_Atoms:                  26
##########                          Grid_Score:          -34.028011
##########                     Grid_vdw_energy:          -33.531136
##########                      Grid_es_energy:           -0.496874
##########           Internal_energy_repulsive:           24.536856

@<TRIPOS>MOLECULE
ZINC000195331548
 56 58 1 0 0
SMALL
USER_CHARGES


@<TRIPOS>ATOM
      1 C1         -8.2047    0.9712   65.9015 C.3     1  ZINC000195331548   -0.0800
      2 C2         -9.0144    1.4154   64.7107 C.2     1  ZINC000195331548    0.0700
      3 C3         -9.3385    2.6935   64.4927 C.2     1  ZINC000195331548   -0.2600
      4 S4        -10.2735    2.7690   63.0013 S.3     1  ZINC000195331548    0.1100
      5 C5        -10.1430    1.0735   62.8236 C.2     1  ZINC000195331548    0.0600
      6 C6        -10.7340    0.2771   61.6887 C.3     1  ZINC000195331548   -0.0100
      7 H7        -10.8434    0.9168   60.8129 H       1  ZINC000195331548    0.1100
      8 C8        -12.1059   -0.2622   62.1027 C.3     1  ZINC000195331548   -0.1200
      9 C9        -12.6724   -1.1193   60.9674 C.3     1  ZINC000195331548   -0.1100
     10 C10       -11.6927   -2.2518   60.6521 C.3     1  ZINC000195331548    0.0500
     11 N11       -10.3960   -1.6842   60.2608 N.3     1  ZINC000195331548   -0.5200
     12 C12        -9.4725   -2.7374   59.8178 C.3     1  ZINC000195331548    0.0400
     13 C13       -10.0220   -3.3994   58.5807 C.2     1  ZINC000195331548    0.5100
     14 O14       -10.0087   -4.6077   58.4830 O.2     1  ZINC000195331548   -0.4400
     15 N15       -10.5283   -2.6482   57.5827 N.am    1  ZINC000195331548   -0.7000
     16 C16       -11.0183   -3.2401   56.4755 C.2     1  ZINC000195331548    0.6900
     17 O17       -11.0023   -4.4514   56.3763 O.2     1  ZINC000195331548   -0.5300
     18 N18       -11.5261   -2.4890   55.4783 N.am    1  ZINC000195331548   -0.7300
     19 C19       -12.0603   -3.1327   54.2755 C.3     1  ZINC000195331548    0.1700
     20 H20       -12.5168   -4.0850   54.5453 H       1  ZINC000195331548    0.0900
     21 C21       -10.9244   -3.3755   53.2798 C.3     1  ZINC000195331548   -0.1300
     22 C22       -10.2836   -2.0388   52.9011 C.3     1  ZINC000195331548   -0.1200
     23 C23       -11.3366   -1.1313   52.2620 C.3     1  ZINC000195331548   -0.1200
     24 C24       -12.4726   -0.8884   53.2577 C.3     1  ZINC000195331548   -0.1100
     25 C25       -13.1134   -2.2252   53.6365 C.3     1  ZINC000195331548   -0.1000
     26 H26       -13.5108   -2.7040   52.7416 H       1  ZINC000195331548    0.0900
     27 C27       -14.2493   -1.9822   54.6323 C.3     1  ZINC000195331548   -0.1500
     28 C28        -9.8104   -0.8959   61.3525 C.3     1  ZINC000195331548    0.0600
     29 N29        -9.4607    0.5752   63.7987 N.2     1  ZINC000195331548   -0.4700
     30 H30        -7.1448    0.9916   65.6483 H       1  ZINC000195331548    0.0800
     31 H31        -8.3911    1.6438   66.7389 H       1  ZINC000195331548    0.0800
     32 H32        -8.4926   -0.0428   66.1790 H       1  ZINC000195331548    0.0800
     33 H33        -9.0710    3.5323   65.1182 H       1  ZINC000195331548    0.1800
     34 H34       -12.0022   -0.8703   63.0014 H       1  ZINC000195331548    0.0600
     35 H35       -12.7797    0.5710   62.3024 H       1  ZINC000195331548    0.0700
     36 H36       -13.6300   -1.5409   61.2728 H       1  ZINC000195331548    0.0800
     37 H37       -12.8125   -0.5017   60.0802 H       1  ZINC000195331548    0.0800
     38 H38       -12.0863   -2.8555   59.8344 H       1  ZINC000195331548    0.0800
     39 H39       -11.5637   -2.8770   61.5356 H       1  ZINC000195331548    0.0400
     40 H40        -9.3618   -3.4796   60.6084 H       1  ZINC000195331548    0.1200
     41 H41        -8.5007   -2.2977   59.5934 H       1  ZINC000195331548    0.0700
     42 H42       -10.5400   -1.6815   57.6614 H       1  ZINC000195331548    0.4100
     43 H43       -11.5378   -1.5223   55.5570 H       1  ZINC000195331548    0.4000
     44 H44       -11.3219   -3.8544   52.3849 H       1  ZINC000195331548    0.0700
     45 H45       -10.1741   -4.0221   53.7350 H       1  ZINC000195331548    0.0700
     46 H46        -9.4743   -2.2119   52.1916 H       1  ZINC000195331548    0.0600
     47 H47        -9.8861   -1.5600   53.7959 H       1  ZINC000195331548    0.0600
     48 H48       -10.8801   -0.1790   51.9922 H       1  ZINC000195331548    0.0600
     49 H49       -11.7341   -1.6102   51.3671 H       1  ZINC000195331548    0.0600
     50 H50       -12.0750   -0.4096   54.1527 H       1  ZINC000195331548    0.0600
     51 H51       -13.2228   -0.2419   52.8025 H       1  ZINC000195331548    0.0700
     52 H52       -13.8518   -1.5034   55.5272 H       1  ZINC000195331548    0.0500
     53 H53       -14.9995   -1.3357   54.1770 H       1  ZINC000195331548    0.0600
     54 H54       -14.7058   -2.9345   54.9021 H       1  ZINC000195331548    0.0600
     55 H55        -9.6903   -1.5274   62.2327 H       1  ZINC000195331548    0.0400
     56 H56        -8.8370   -0.5147   61.0435 H       1  ZINC000195331548    0.0900
@<TRIPOS>BOND
     1     1     2    1
     2     1    30    1
     3     1    31    1
     4     1    32    1
     5     2    29    1
     6     2     3    2
     7     3     4    1
     8     3    33    1
     9     4     5    1
    10     5     6    1
    11     5    29    2
    12     6     7    1
    13     6    28    1
    14     6     8    1
    15     8     9    1
    16     8    34    1
    17     8    35    1
    18     9    10    1
    19     9    36    1
    20     9    37    1
    21    10    11    1
    22    10    38    1
    23    10    39    1
    24    11    12    1
    25    11    28    1
    26    12    13    1
    27    12    40    1
    28    12    41    1
    29    13    14    2
    30    13    15   am
    31    15    16   am
    32    15    42    1
    33    16    17    2
    34    16    18   am
    35    18    19    1
    36    18    43    1
    37    19    20    1
    38    19    25    1
    39    19    21    1
    40    21    22    1
    41    21    44    1
    42    21    45    1
    43    22    23    1
    44    22    46    1
    45    22    47    1
    46    23    24    1
    47    23    48    1
    48    23    49    1
    49    24    25    1
    50    24    50    1
    51    24    51    1
    52    25    26    1
    53    25    27    1
    54    27    52    1
    55    27    53    1
    56    27    54    1
    57    28    55    1
    58    28    56    1
@<TRIPOS>SUBSTRUCTURE
     1 ZINC000195331548        1 TEMP              0 ****  ****    0 ROOT


##########                                Name:    ZINC000432833246
##########                DOCK_Rotatable_Bonds:                   5
##########                         Heavy_Atoms:                  25
##########                    Molecular_Weight:             400.318
##########                DOCK_Rotatable_Bonds:                   5
##########                       Formal_Charge:        -3.20375e-07
##########                     HBond_Acceptors:                   4
##########                        HBond_Donors:                   1
##########                         Heavy_Atoms:                  25
##########                          Grid_Score:          -34.010658
##########                     Grid_vdw_energy:          -33.645725
##########                      Grid_es_energy:           -0.364932
##########           Internal_energy_repulsive:            8.713847

@<TRIPOS>MOLECULE
ZINC000432833246
 47 51 1 0 0
SMALL
USER_CHARGES


@<TRIPOS>ATOM
      1 O1         -8.3901   -1.8161   63.1128 O.2     1  ZINC000432833246   -0.5200
      2 C2         -8.9656   -1.4797   62.0996 C.2     1  ZINC000432833246    0.5200
      3 C3         -9.2458   -2.3855   60.9207 C.3     1  ZINC000432833246   -0.1500
      4 C4        -10.3298   -1.6336   60.1142 C.3     1  ZINC000432833246   -0.1100
      5 H5        -11.3285   -1.9591   60.4055 H       1  ZINC000432833246    0.1000
      6 C6        -10.1157   -1.8127   58.6099 C.3     1  ZINC000432833246    0.1300
      7 N7        -10.5018   -0.5838   57.9119 N.pl3   1  ZINC000432833246   -0.7200
      8 C8        -10.2918   -0.4669   56.5463 C.ar    1  ZINC000432833246    0.2800
      9 C9         -9.4064    0.5060   56.0244 C.ar    1  ZINC000432833246   -0.1500
     10 C10        -8.7101    1.3848   56.8658 C.ar    1  ZINC000432833246   -0.0700
     11 C11        -7.8659    2.3080   56.3259 C.ar    1  ZINC000432833246   -0.1300
     12 C12        -7.6857    2.3904   54.9474 C.ar    1  ZINC000432833246   -0.0600
     13 C13        -8.3467    1.5518   54.1017 C.ar    1  ZINC000432833246   -0.0800
     14 Br14       -8.0825    1.6855   52.2339 Br      1  ZINC000432833246   -0.0300
     15 C15        -9.2258    0.5858   54.6231 C.ar    1  ZINC000432833246    0.1900
     16 N16        -9.8874   -0.2508   53.8156 N.ar    1  ZINC000432833246   -0.5000
     17 C17       -10.7110   -1.1577   54.2878 C.ar    1  ZINC000432833246    0.2400
     18 C18       -11.4258   -2.0699   53.3246 C.3     1  ZINC000432833246   -0.1100
     19 C19       -10.6517   -2.5423   52.0923 C.3     1  ZINC000432833246   -0.1700
     20 C20       -10.9431   -3.5190   53.2335 C.3     1  ZINC000432833246   -0.1600
     21 C21       -10.9382   -1.3031   55.6493 C.ar    1  ZINC000432833246   -0.2700
     22 C22       -10.0796   -0.1696   60.5387 C.3     1  ZINC000432833246    0.1100
     23 N23        -9.4524   -0.2492   61.8631 N.am    1  ZINC000432833246   -0.5900
     24 C24        -9.3606    0.8708   62.8030 C.3     1  ZINC000432833246    0.0800
     25 C25       -10.3332    2.0360   62.6106 C.3     1  ZINC000432833246   -0.1900
     26 C26       -10.5201    1.0689   63.7813 C.3     1  ZINC000432833246   -0.1900
     27 H27        -8.3464   -2.5183   60.3195 H       1  ZINC000432833246    0.1100
     28 H28        -9.6237   -3.3493   61.2617 H       1  ZINC000432833246    0.1000
     29 H29        -9.0645   -2.0260   58.4154 H       1  ZINC000432833246    0.0800
     30 H30       -10.7269   -2.6412   58.2519 H       1  ZINC000432833246    0.0700
     31 H31       -10.9043    0.1480   58.4051 H       1  ZINC000432833246    0.4000
     32 H32        -8.8424    1.3307   57.9363 H       1  ZINC000432833246    0.1300
     33 H33        -7.3299    2.9846   56.9750 H       1  ZINC000432833246    0.1400
     34 H34        -7.0118    3.1308   54.5427 H       1  ZINC000432833246    0.1400
     35 H35       -12.4941   -1.8872   53.2087 H       1  ZINC000432833246    0.1300
     36 H36       -11.2108   -2.6702   51.1653 H       1  ZINC000432833246    0.1000
     37 H37        -9.6255   -2.1933   51.9782 H       1  ZINC000432833246    0.1000
     38 H38       -10.1085   -3.8124   53.8702 H       1  ZINC000432833246    0.0900
     39 H39       -11.6938   -4.2893   53.0572 H       1  ZINC000432833246    0.1000
     40 H40       -11.6213   -2.0588   56.0076 H       1  ZINC000432833246    0.1400
     41 H41        -9.4119    0.3198   59.8297 H       1  ZINC000432833246    0.0800
     42 H42       -11.0240    0.3709   60.6033 H       1  ZINC000432833246    0.0900
     43 H43        -8.3571    1.1058   63.1577 H       1  ZINC000432833246    0.1300
     44 H44        -9.9697    3.0380   62.8385 H       1  ZINC000432833246    0.1000
     45 H45       -11.0414    1.9693   61.7847 H       1  ZINC000432833246    0.1300
     46 H46       -11.3512    0.3660   63.7257 H       1  ZINC000432833246    0.0900
     47 H47       -10.2794    1.4347   64.7796 H       1  ZINC000432833246    0.1000
@<TRIPOS>BOND
     1     1     2    2
     2     2    23   am
     3     2     3    1
     4     3     4    1
     5     3    27    1
     6     3    28    1
     7     4     5    1
     8     4     6    1
     9     4    22    1
    10     6     7    1
    11     6    29    1
    12     6    30    1
    13     7     8    1
    14     7    31    1
    15     8    21   ar
    16     8     9   ar
    17     9    15   ar
    18     9    10   ar
    19    10    11   ar
    20    10    32    1
    21    11    12   ar
    22    11    33    1
    23    12    13   ar
    24    12    34    1
    25    13    14    1
    26    13    15   ar
    27    15    16   ar
    28    16    17   ar
    29    17    18    1
    30    17    21   ar
    31    18    20    1
    32    18    19    1
    33    18    35    1
    34    19    20    1
    35    19    36    1
    36    19    37    1
    37    20    38    1
    38    20    39    1
    39    21    40    1
    40    22    23    1
    41    22    41    1
    42    22    42    1
    43    23    24    1
    44    24    26    1
    45    24    25    1
    46    24    43    1
    47    25    26    1
    48    25    44    1
    49    25    45    1
    50    26    46    1
    51    26    47    1
@<TRIPOS>SUBSTRUCTURE
     1 ZINC000432833246        1 TEMP              0 ****  ****    0 ROOT


##########                                Name:    ZINC000536173632
##########                DOCK_Rotatable_Bonds:                   7
##########                         Heavy_Atoms:                  29
##########                    Molecular_Weight:             407.389
##########                DOCK_Rotatable_Bonds:                   7
##########                       Formal_Charge:        -2.98023e-07
##########                     HBond_Acceptors:                   8
##########                        HBond_Donors:                   0
##########                         Heavy_Atoms:                  29
##########                          Grid_Score:          -34.006222
##########                     Grid_vdw_energy:          -34.476818
##########                      Grid_es_energy:            0.470597
##########           Internal_energy_repulsive:           18.278757

@<TRIPOS>MOLECULE
ZINC000536173632
 49 51 1 0 0
SMALL
USER_CHARGES


@<TRIPOS>ATOM
      1 C1         -8.4431    2.1851   55.5676 C.3     1  ZINC000536173632    0.0400
      2 O2         -9.4931    1.2712   55.1545 O.3     1  ZINC000536173632   -0.3500
      3 C3         -9.2356    0.4838   54.0924 C.2     1  ZINC000536173632    0.5100
      4 O4         -8.1738    0.5779   53.5098 O.2     1  ZINC000536173632   -0.5000
      5 C5        -10.2444   -0.4942   53.6360 C.ar    1  ZINC000536173632   -0.1300
      6 C6         -9.9447   -1.3779   52.5976 C.ar    1  ZINC000536173632   -0.0600
      7 C7        -10.8914   -2.2887   52.1762 C.ar    1  ZINC000536173632   -0.1300
      8 C8        -12.1356   -2.3271   52.7799 C.ar    1  ZINC000536173632   -0.0700
      9 C9        -12.4394   -1.4540   53.8097 C.ar    1  ZINC000536173632   -0.0800
     10 C10       -13.7974   -1.5034   54.4613 C.3     1  ZINC000536173632   -0.1000
     11 C11       -14.2620   -2.9344   54.5464 C.2     1  ZINC000536173632    0.5200
     12 O12       -15.1924   -3.3115   53.8659 O.2     1  ZINC000536173632   -0.5200
     13 N13       -13.6435   -3.7952   55.3788 N.am    1  ZINC000536173632   -0.6200
     14 C14       -14.0791   -5.1972   55.4792 C.3     1  ZINC000536173632    0.0700
     15 C15       -14.2762   -5.5374   56.9609 C.3     1  ZINC000536173632    0.0500
     16 O16       -13.0951   -5.1862   57.6856 O.3     1  ZINC000536173632   -0.3700
     17 C17       -12.7858   -3.7906   57.6598 C.3     1  ZINC000536173632    0.1200
     18 H18       -13.6286   -3.2235   58.0548 H       1  ZINC000536173632    0.0800
     19 C19       -11.5642   -3.5301   58.5030 C.ar    1  ZINC000536173632   -0.0900
     20 C20       -10.5005   -4.4119   58.4696 C.ar    1  ZINC000536173632   -0.0600
     21 C21        -9.3798   -4.1729   59.2431 C.ar    1  ZINC000536173632   -0.1200
     22 C22        -9.3230   -3.0518   60.0495 C.ar    1  ZINC000536173632   -0.0700
     23 C23       -10.3866   -2.1691   60.0821 C.ar    1  ZINC000536173632   -0.1800
     24 C24       -10.3248   -0.9470   60.9617 C.3     1  ZINC000536173632    0.5100
     25 F25        -9.1738   -1.0011   61.7550 F       1  ZINC000536173632   -0.1800
     26 F26       -10.2872    0.2010   60.1630 F       1  ZINC000536173632   -0.1800
     27 F27       -11.4562   -0.9063   61.7836 F       1  ZINC000536173632   -0.1800
     28 C28       -11.5051   -2.4058   59.3056 C.ar    1  ZINC000536173632   -0.0500
     29 C29       -12.5087   -3.3624   56.2097 C.3     1  ZINC000536173632    0.0900
     30 C30       -11.5001   -0.5427   54.2450 C.ar    1  ZINC000536173632   -0.0400
     31 H31        -7.5512    1.6175   55.8333 H       1  ZINC000536173632    0.0600
     32 H32        -8.2103    2.8653   54.7483 H       1  ZINC000536173632    0.0600
     33 H33        -8.7795    2.7584   56.4315 H       1  ZINC000536173632    0.1000
     34 H34        -8.9740   -1.3485   52.1250 H       1  ZINC000536173632    0.1400
     35 H35       -10.6608   -2.9730   51.3731 H       1  ZINC000536173632    0.1400
     36 H36       -12.8734   -3.0417   52.4458 H       1  ZINC000536173632    0.1300
     37 H37       -13.7347   -1.0814   55.4643 H       1  ZINC000536173632    0.1100
     38 H38       -14.5063   -0.9259   53.8678 H       1  ZINC000536173632    0.1100
     39 H39       -15.0196   -5.3286   54.9441 H       1  ZINC000536173632    0.1000
     40 H40       -13.3182   -5.8496   55.0509 H       1  ZINC000536173632    0.0800
     41 H41       -15.1245   -4.9766   57.3534 H       1  ZINC000536173632    0.0600
     42 H42       -14.4645   -6.6057   57.0673 H       1  ZINC000536173632    0.1100
     43 H43       -10.5449   -5.2879   57.8395 H       1  ZINC000536173632    0.1400
     44 H44        -8.5490   -4.8624   59.2176 H       1  ZINC000536173632    0.1400
     45 H45        -8.4478   -2.8655   60.6543 H       1  ZINC000536173632    0.1400
     46 H46       -12.3360   -1.7163   59.3310 H       1  ZINC000536173632    0.1400
     47 H47       -11.5895   -3.8307   55.8579 H       1  ZINC000536173632    0.0800
     48 H48       -12.4113   -2.2780   56.1594 H       1  ZINC000536173632    0.1100
     49 H49       -11.7383    0.1379   55.0490 H       1  ZINC000536173632    0.1400
@<TRIPOS>BOND
     1     1     2    1
     2     1    31    1
     3     1    32    1
     4     1    33    1
     5     2     3    1
     6     3     4    2
     7     3     5    1
     8     5    30   ar
     9     5     6   ar
    10     6     7   ar
    11     6    34    1
    12     7     8   ar
    13     7    35    1
    14     8     9   ar
    15     8    36    1
    16     9    10    1
    17     9    30   ar
    18    10    11    1
    19    10    37    1
    20    10    38    1
    21    11    12    2
    22    11    13   am
    23    13    29    1
    24    13    14    1
    25    14    15    1
    26    14    39    1
    27    14    40    1
    28    15    16    1
    29    15    41    1
    30    15    42    1
    31    16    17    1
    32    17    18    1
    33    17    19    1
    34    17    29    1
    35    19    28   ar
    36    19    20   ar
    37    20    21   ar
    38    20    43    1
    39    21    22   ar
    40    21    44    1
    41    22    23   ar
    42    22    45    1
    43    23    24    1
    44    23    28   ar
    45    24    25    1
    46    24    26    1
    47    24    27    1
    48    28    46    1
    49    29    47    1
    50    29    48    1
    51    30    49    1
@<TRIPOS>SUBSTRUCTURE
     1 ZINC000536173632        1 TEMP              0 ****  ****    0 ROOT


##########                                Name:    ZINC000277085192
##########                DOCK_Rotatable_Bonds:                   4
##########                         Heavy_Atoms:                  23
##########                    Molecular_Weight:             335.747
##########                DOCK_Rotatable_Bonds:                   4
##########                       Formal_Charge:         5.96046e-08
##########                     HBond_Acceptors:                   8
##########                        HBond_Donors:                   2
##########                         Heavy_Atoms:                  23
##########                          Grid_Score:          -34.003372
##########                     Grid_vdw_energy:          -32.015507
##########                      Grid_es_energy:           -1.987867
##########           Internal_energy_repulsive:            7.959945

@<TRIPOS>MOLECULE
ZINC000277085192
 37 39 1 0 0
SMALL
USER_CHARGES


@<TRIPOS>ATOM
      1 O1        -10.9498   -2.4924   60.6803 O.2     1  ZINC000277085192   -0.5000
      2 C2         -9.8662   -2.5173   60.1358 C.2     1  ZINC000277085192    0.5000
      3 C3         -9.6017   -3.5051   59.0289 C.3     1  ZINC000277085192    0.1100
      4 N4        -10.7882   -3.6126   58.1765 N.am    1  ZINC000277085192   -0.6000
      5 C5        -11.5890   -2.4185   57.9000 C.3     1  ZINC000277085192    0.1100
      6 C6        -12.1199   -2.4796   56.4659 C.3     1  ZINC000277085192   -0.1600
      7 C7        -12.6939   -3.8500   56.2079 C.2     1  ZINC000277085192    0.5200
      8 O8        -13.6565   -3.9776   55.4820 O.2     1  ZINC000277085192   -0.5000
      9 N9        -12.1368   -4.9313   56.7834 N.am    1  ZINC000277085192   -0.6700
     10 C10       -11.1231   -4.8041   57.6551 C.2     1  ZINC000277085192    0.7200
     11 O11       -10.4988   -5.7926   57.9871 O.2     1  ZINC000277085192   -0.5500
     12 N12        -8.9007   -1.6576   60.5169 N.am    1  ZINC000277085192   -0.6700
     13 C13        -9.1464   -0.7398   61.5452 C.ar    1  ZINC000277085192    0.1400
     14 C14        -8.7566   -1.0310   62.8393 C.ar    1  ZINC000277085192   -0.0400
     15 C15        -9.0031   -0.1116   63.8708 C.ar    1  ZINC000277085192   -0.1700
     16 C16        -9.6423    1.0933   63.5766 C.ar    1  ZINC000277085192   -0.0500
     17 C17       -10.0270    1.3734   62.2789 C.ar    1  ZINC000277085192   -0.0900
     18 C18        -9.7780    0.4680   61.2638 C.ar    1  ZINC000277085192   -0.0300
     19 Cl19      -10.2665    0.8323   59.6383 Cl      1  ZINC000277085192   -0.0500
     20 C20        -9.7930    1.9076   64.8395 C.3     1  ZINC000277085192   -0.0800
     21 C21        -9.1721    1.0723   65.9675 C.3     1  ZINC000277085192   -0.1700
     22 C22        -8.6869   -0.1945   65.3059 C.2     1  ZINC000277085192    0.4100
     23 O23        -8.1326   -1.1197   65.8602 O.2     1  ZINC000277085192   -0.4300
     24 H24        -8.7554   -3.1645   58.4325 H       1  ZINC000277085192    0.1300
     25 H25        -9.3739   -4.4804   59.4592 H       1  ZINC000277085192    0.1200
     26 H26       -12.4268   -2.3739   58.5958 H       1  ZINC000277085192    0.0800
     27 H27       -10.9694   -1.5299   58.0204 H       1  ZINC000277085192    0.1000
     28 H28       -12.8981   -1.7280   56.3334 H       1  ZINC000277085192    0.1300
     29 H29       -11.3052   -2.2886   55.7675 H       1  ZINC000277085192    0.1200
     30 H30       -12.4699   -5.8151   56.5625 H       1  ZINC000277085192    0.4300
     31 H31        -8.0355   -1.6750   60.0788 H       1  ZINC000277085192    0.4200
     32 H32        -8.2625   -1.9664   63.0567 H       1  ZINC000277085192    0.1500
     33 H33       -10.5217    2.3071   62.0556 H       1  ZINC000277085192    0.1500
     34 H34        -9.2629    2.8548   64.7397 H       1  ZINC000277085192    0.1000
     35 H35       -10.8482    2.0883   65.0447 H       1  ZINC000277085192    0.1000
     36 H36        -8.3359    1.6076   66.4174 H       1  ZINC000277085192    0.1100
     37 H37        -9.9231    0.8402   66.7228 H       1  ZINC000277085192    0.1100
@<TRIPOS>BOND
     1     1     2    2
     2     2     3    1
     3     2    12   am
     4     3     4    1
     5     3    24    1
     6     3    25    1
     7     4    10   am
     8     4     5    1
     9     5     6    1
    10     5    26    1
    11     5    27    1
    12     6     7    1
    13     6    28    1
    14     6    29    1
    15     7     8    2
    16     7     9   am
    17     9    10   am
    18     9    30    1
    19    10    11    2
    20    12    13    1
    21    12    31    1
    22    13    18   ar
    23    13    14   ar
    24    14    15   ar
    25    14    32    1
    26    15    22    1
    27    15    16   ar
    28    16    17   ar
    29    16    20    1
    30    17    18   ar
    31    17    33    1
    32    18    19    1
    33    20    21    1
    34    20    34    1
    35    20    35    1
    36    21    22    1
    37    21    36    1
    38    21    37    1
    39    22    23    2
@<TRIPOS>SUBSTRUCTURE
     1 ZINC000277085192        1 TEMP              0 ****  ****    0 ROOT


##########                                Name:    ZINC001141221454
##########                DOCK_Rotatable_Bonds:                   7
##########                         Heavy_Atoms:                  27
##########                    Molecular_Weight:             369.439
##########                DOCK_Rotatable_Bonds:                   7
##########                       Formal_Charge:          0.00999935
##########                     HBond_Acceptors:                   6
##########                        HBond_Donors:                   1
##########                         Heavy_Atoms:                  27
##########                          Grid_Score:          -34.000053
##########                     Grid_vdw_energy:          -32.881214
##########                      Grid_es_energy:           -1.118840
##########           Internal_energy_repulsive:           16.655043

@<TRIPOS>MOLECULE
ZINC001141221454
 51 54 1 0 0
SMALL
USER_CHARGES


@<TRIPOS>ATOM
      1 C1         -9.1179   -2.8966   61.1094 C.3     1  ZINC001141221454    0.0300
      2 O2         -9.5393   -2.0004   60.0792 O.3     1  ZINC001141221454   -0.3100
      3 C3        -10.0051   -2.5569   58.9295 C.ar    1  ZINC001141221454    0.0900
      4 C4         -9.8991   -3.9241   58.7271 C.ar    1  ZINC001141221454   -0.1800
      5 C5        -10.3738   -4.4879   57.5578 C.ar    1  ZINC001141221454   -0.0900
      6 C6        -10.9543   -3.6902   56.5896 C.ar    1  ZINC001141221454   -0.1200
      7 C7        -11.0617   -2.3256   56.7872 C.ar    1  ZINC001141221454   -0.0800
      8 C8        -11.6947   -1.4590   55.7293 C.3     1  ZINC001141221454    0.0900
      9 N9        -10.6708   -1.0388   54.7634 N.3     1  ZINC001141221454   -0.5100
     10 C10       -11.1996   -1.0792   53.3754 C.3     1  ZINC001141221454    0.0300
     11 C11       -10.2417   -0.1377   52.5999 C.3     1  ZINC001141221454   -0.0700
     12 C12        -9.9543    0.9734   53.6265 C.3     1  ZINC001141221454   -0.1000
     13 C13       -10.2572    2.4331   53.3145 C.3     1  ZINC001141221454   -0.1400
     14 C14        -8.8067    1.9546   53.4267 C.3     1  ZINC001141221454   -0.1800
     15 H15        -8.2435    2.2572   54.3095 H       1  ZINC001141221454    0.1300
     16 C16        -8.0093    1.8446   52.1528 C.2     1  ZINC001141221454    0.5500
     17 O17        -8.1901    2.6383   51.2537 O.2     1  ZINC001141221454   -0.5300
     18 N18        -7.0951    0.8643   52.0126 N.am    1  ZINC001141221454   -0.7300
     19 C19        -6.3210    0.7563   50.7735 C.3     1  ZINC001141221454    0.1700
     20 C20        -5.0275    1.5152   50.9214 C.ar    1  ZINC001141221454   -0.1600
     21 C21        -4.9233    2.5538   51.8336 C.ar    1  ZINC001141221454   -0.0600
     22 C22        -3.7135    3.2236   51.9359 C.ar    1  ZINC001141221454   -0.1700
     23 C23        -2.6593    2.8365   51.1307 C.ar    1  ZINC001141221454    0.1100
     24 N24        -2.7945    1.8434   50.2734 N.ar    1  ZINC001141221454   -0.4800
     25 C25        -3.9281    1.1808   50.1531 C.ar    1  ZINC001141221454    0.1200
     26 C26       -10.2619    0.3647   55.0002 C.3     1  ZINC001141221454    0.0700
     27 C27       -10.5936   -1.7569   57.9577 C.ar    1  ZINC001141221454    0.0900
     28 F28       -10.6984   -0.4239   58.1512 F       1  ZINC001141221454   -0.1300
     29 H29        -8.7700   -2.3241   61.9692 H       1  ZINC001141221454    0.1000
     30 H30        -9.9557   -3.5270   61.4077 H       1  ZINC001141221454    0.0600
     31 H31        -8.3067   -3.5224   60.7372 H       1  ZINC001141221454    0.0600
     32 H32        -9.4455   -4.5485   59.4825 H       1  ZINC001141221454    0.1400
     33 H33       -10.2907   -5.5531   57.4002 H       1  ZINC001141221454    0.1300
     34 H34       -11.3244   -4.1334   55.6770 H       1  ZINC001141221454    0.1300
     35 H35       -12.4709   -2.0240   55.2133 H       1  ZINC001141221454    0.0600
     36 H36       -12.1360   -0.5788   56.1969 H       1  ZINC001141221454    0.0900
     37 H37       -11.1507   -2.0918   52.9749 H       1  ZINC001141221454    0.0800
     38 H38       -12.2212   -0.7006   53.3421 H       1  ZINC001141221454    0.0500
     39 H39        -9.3241   -0.6589   52.3275 H       1  ZINC001141221454    0.0900
     40 H40       -10.7326    0.2703   51.7162 H       1  ZINC001141221454    0.0700
     41 H41       -10.6345    2.6675   52.3191 H       1  ZINC001141221454    0.1000
     42 H42       -10.6479    3.0504   54.1234 H       1  ZINC001141221454    0.1100
     43 H43        -6.9496    0.2303   52.7322 H       1  ZINC001141221454    0.4000
     44 H44        -6.1057   -0.2926   50.5698 H       1  ZINC001141221454    0.0800
     45 H45        -6.8961    1.1760   49.9481 H       1  ZINC001141221454    0.0800
     46 H46        -5.7646    2.8347   52.4500 H       1  ZINC001141221454    0.1400
     47 H47        -3.5967    4.0378   52.6357 H       1  ZINC001141221454    0.1400
     48 H48        -1.7139    3.3533   51.2039 H       1  ZINC001141221454    0.1600
     49 H49        -4.0012    0.3732   49.4398 H       1  ZINC001141221454    0.1600
     50 H50       -11.0732    0.9139   55.4781 H       1  ZINC001141221454    0.0500
     51 H51        -9.3715    0.3929   55.6283 H       1  ZINC001141221454    0.0900
@<TRIPOS>BOND
     1     1     2    1
     2     1    29    1
     3     1    30    1
     4     1    31    1
     5     2     3    1
     6     3    27   ar
     7     3     4   ar
     8     4     5   ar
     9     4    32    1
    10     5     6   ar
    11     5    33    1
    12     6     7   ar
    13     6    34    1
    14     7     8    1
    15     7    27   ar
    16     8     9    1
    17     8    35    1
    18     8    36    1
    19     9    26    1
    20     9    10    1
    21    10    11    1
    22    10    37    1
    23    10    38    1
    24    11    12    1
    25    11    39    1
    26    11    40    1
    27    12    14    1
    28    12    13    1
    29    12    26    1
    30    13    14    1
    31    13    41    1
    32    13    42    1
    33    14    15    1
    34    14    16    1
    35    16    17    2
    36    16    18   am
    37    18    19    1
    38    18    43    1
    39    19    20    1
    40    19    44    1
    41    19    45    1
    42    20    25   ar
    43    20    21   ar
    44    21    22   ar
    45    21    46    1
    46    22    23   ar
    47    22    47    1
    48    23    24   ar
    49    23    48    1
    50    24    25   ar
    51    25    49    1
    52    26    50    1
    53    26    51    1
    54    27    28    1
@<TRIPOS>SUBSTRUCTURE
     1 ZINC001141221454        1 TEMP              0 ****  ****    0 ROOT


##########                                Name:    ZINC000191003171
##########                DOCK_Rotatable_Bonds:                   6
##########                         Heavy_Atoms:                  26
##########                    Molecular_Weight:             389.414
##########                DOCK_Rotatable_Bonds:                   6
##########                       Formal_Charge:          -0.0200002
##########                     HBond_Acceptors:                   8
##########                        HBond_Donors:                   1
##########                         Heavy_Atoms:                  26
##########                          Grid_Score:          -33.990120
##########                     Grid_vdw_energy:          -34.256638
##########                      Grid_es_energy:            0.266517
##########           Internal_energy_repulsive:           19.047602

@<TRIPOS>MOLECULE
ZINC000191003171
 45 46 1 0 0
SMALL
USER_CHARGES


@<TRIPOS>ATOM
      1 C1        -11.0891   -2.3494   52.2538 C.3     1  ZINC000191003171   -0.1200
      2 C2        -12.5846   -2.3636   52.0680 C.ar    1  ZINC000191003171   -0.0800
      3 C3        -13.1601   -1.6407   51.0402 C.ar    1  ZINC000191003171   -0.0700
      4 C4        -14.5321   -1.6537   50.8697 C.ar    1  ZINC000191003171   -0.1800
      5 C5        -15.1597   -0.8651   49.7494 C.3     1  ZINC000191003171    0.5100
      6 F6        -16.3263   -1.5086   49.3226 F       1  ZINC000191003171   -0.1800
      7 F7        -15.4753    0.4199   50.2034 F       1  ZINC000191003171   -0.1800
      8 F8        -14.2598   -0.7745   48.6818 F       1  ZINC000191003171   -0.1800
      9 C9        -15.3280   -2.3903   51.7266 C.ar    1  ZINC000191003171   -0.0800
     10 C10       -14.7522   -3.1137   52.7545 C.ar    1  ZINC000191003171   -0.1000
     11 C11       -13.3803   -3.1042   52.9223 C.ar    1  ZINC000191003171   -0.0500
     12 C12       -12.7527   -3.8928   54.0427 C.3     1  ZINC000191003171    0.0900
     13 N13       -13.7773   -4.2248   55.0416 N.3     1  ZINC000191003171   -0.6800
     14 C14       -13.2633   -5.1902   56.0223 C.3     1  ZINC000191003171    0.1200
     15 H15       -12.7970   -6.0255   55.4999 H       1  ZINC000191003171    0.0600
     16 C16       -14.4181   -5.7074   56.8824 C.3     1  ZINC000191003171   -0.1400
     17 C17       -12.2432   -4.5164   56.9034 C.ar    1  ZINC000191003171   -0.0100
     18 C18       -11.2347   -5.2605   57.4864 C.ar    1  ZINC000191003171   -0.1300
     19 C19       -10.2981   -4.6436   58.2950 C.ar    1  ZINC000191003171    0.0100
     20 C20       -10.3694   -3.2823   58.5214 C.ar    1  ZINC000191003171   -0.7000
     21 S21        -9.1755   -2.4966   59.5521 S.o2    1  ZINC000191003171    2.5000
     22 C22       -10.0922   -2.0608   61.0555 C.3     1  ZINC000191003171   -0.6500
     23 O23        -8.2241   -3.5159   59.8260 O.2     1  ZINC000191003171   -0.9300
     24 O24        -8.8091   -1.3262   58.8345 O.2     1  ZINC000191003171   -0.9300
     25 C25       -11.3790   -2.5358   57.9375 C.ar    1  ZINC000191003171    0.1900
     26 F26       -11.4497   -1.2048   58.1581 F       1  ZINC000191003171   -0.1200
     27 C27       -12.3132   -3.1537   57.1238 C.ar    1  ZINC000191003171   -0.1700
     28 H28       -10.6433   -3.1578   51.6743 H       1  ZINC000191003171    0.0800
     29 H29       -10.6895   -1.3945   51.9124 H       1  ZINC000191003171    0.0800
     30 H30       -10.8528   -2.4858   53.3091 H       1  ZINC000191003171    0.0600
     31 H31       -12.5381   -1.0654   50.3704 H       1  ZINC000191003171    0.1400
     32 H32       -16.3996   -2.4004   51.5936 H       1  ZINC000191003171    0.1400
     33 H33       -15.3741   -3.6891   53.4243 H       1  ZINC000191003171    0.1400
     34 H34       -12.3228   -4.8116   53.6439 H       1  ZINC000191003171    0.0900
     35 H35       -11.9683   -3.2979   54.5107 H       1  ZINC000191003171    0.0500
     36 H36       -14.1199   -3.3929   55.4985 H       1  ZINC000191003171    0.3500
     37 H37       -14.0367   -6.4238   57.6101 H       1  ZINC000191003171    0.0600
     38 H38       -14.8844   -4.8720   57.4049 H       1  ZINC000191003171    0.0700
     39 H39       -15.1559   -6.1948   56.2450 H       1  ZINC000191003171    0.0600
     40 H40       -11.1784   -6.3245   57.3103 H       1  ZINC000191003171    0.1500
     41 H41        -9.5106   -5.2260   58.7503 H       1  ZINC000191003171    0.1600
     42 H42       -10.4917   -2.9661   61.5127 H       1  ZINC000191003171    0.1300
     43 H43        -9.4230   -1.5640   61.7580 H       1  ZINC000191003171    0.1400
     44 H44       -10.9127   -1.3906   60.7993 H       1  ZINC000191003171    0.1300
     45 H45       -13.1008   -2.5724   56.6676 H       1  ZINC000191003171    0.1500
@<TRIPOS>BOND
     1     1     2    1
     2     1    28    1
     3     1    29    1
     4     1    30    1
     5     2    11   ar
     6     2     3   ar
     7     3     4   ar
     8     3    31    1
     9     4     5    1
    10     4     9   ar
    11     5     6    1
    12     5     7    1
    13     5     8    1
    14     9    10   ar
    15     9    32    1
    16    10    11   ar
    17    10    33    1
    18    11    12    1
    19    12    13    1
    20    12    34    1
    21    12    35    1
    22    13    14    1
    23    13    36    1
    24    14    15    1
    25    14    16    1
    26    14    17    1
    27    16    37    1
    28    16    38    1
    29    16    39    1
    30    17    27   ar
    31    17    18   ar
    32    18    19   ar
    33    18    40    1
    34    19    20   ar
    35    19    41    1
    36    20    21    1
    37    20    25   ar
    38    21    22    1
    39    21    23    2
    40    21    24    2
    41    22    42    1
    42    22    43    1
    43    22    44    1
    44    25    26    1
    45    25    27   ar
    46    27    45    1
@<TRIPOS>SUBSTRUCTURE
     1 ZINC000191003171        1 TEMP              0 ****  ****    0 ROOT


##########                                Name:    ZINC000130059363
##########                DOCK_Rotatable_Bonds:                   4
##########                         Heavy_Atoms:                  29
##########                    Molecular_Weight:             389.497
##########                DOCK_Rotatable_Bonds:                   4
##########                       Formal_Charge:          -0.0100003
##########                     HBond_Acceptors:                   5
##########                        HBond_Donors:                   0
##########                         Heavy_Atoms:                  29
##########                          Grid_Score:          -33.969189
##########                     Grid_vdw_energy:          -34.527672
##########                      Grid_es_energy:            0.558482
##########           Internal_energy_repulsive:           28.890480

@<TRIPOS>MOLECULE
ZINC000130059363
 56 60 1 0 0
SMALL
USER_CHARGES


@<TRIPOS>ATOM
      1 C1        -11.6405    1.0909   53.6183 C.3     1  ZINC000130059363   -0.1200
      2 C2        -10.5041    0.2890   53.0383 C.ar    1  ZINC000130059363    0.1900
      3 N3         -9.3811    0.8919   52.7148 N.ar    1  ZINC000130059363   -0.4800
      4 C4         -8.3531    0.2264   52.2012 C.ar    1  ZINC000130059363    0.2000
      5 C5         -7.1098    0.9550   51.8544 C.ar    1  ZINC000130059363   -0.0600
      6 C6         -6.9067    2.2537   52.3196 C.ar    1  ZINC000130059363   -0.1000
      7 C7         -5.7470    2.9269   51.9939 C.ar    1  ZINC000130059363   -0.1200
      8 C8         -4.7871    2.3159   51.2070 C.ar    1  ZINC000130059363   -0.1000
      9 C9         -4.9833    1.0279   50.7421 C.ar    1  ZINC000130059363   -0.1300
     10 C10        -6.1362    0.3424   51.0665 C.ar    1  ZINC000130059363   -0.0700
     11 C11        -8.4279   -1.1493   51.9843 C.ar    1  ZINC000130059363   -0.1800
     12 C12        -9.5895   -1.8209   52.3104 C.ar    1  ZINC000130059363   -0.0400
     13 C13       -10.6525   -1.0876   52.8553 C.ar    1  ZINC000130059363   -0.1900
     14 C14       -11.9159   -1.7597   53.2212 C.2     1  ZINC000130059363    0.5700
     15 O15       -12.7013   -2.0910   52.3544 O.2     1  ZINC000130059363   -0.5200
     16 N16       -12.1979   -2.0056   54.5160 N.am    1  ZINC000130059363   -0.6000
     17 C17       -13.4474   -2.6789   54.8982 C.3     1  ZINC000130059363    0.1000
     18 C18       -13.0968   -3.9032   55.7490 C.3     1  ZINC000130059363   -0.1500
     19 C19       -12.2239   -3.4826   56.9259 C.3     1  ZINC000130059363    0.1500
     20 H20       -11.9606   -4.3774   57.4900 H       1  ZINC000130059363    0.0700
     21 C21       -10.9315   -2.8297   56.4397 C.3     1  ZINC000130059363   -0.1100
     22 H22       -10.3382   -3.5492   55.8755 H       1  ZINC000130059363    0.1000
     23 C23       -10.1483   -2.3509   57.6724 C.3     1  ZINC000130059363   -0.1200
     24 C24       -10.9274   -1.2017   58.3172 C.3     1  ZINC000130059363   -0.1400
     25 C25       -12.3716   -1.5799   58.4771 C.2     1  ZINC000130059363    0.5200
     26 O26       -13.0542   -0.9296   59.2399 O.2     1  ZINC000130059363   -0.5400
     27 N27       -12.9393   -2.5811   57.8151 N.am    1  ZINC000130059363   -0.5700
     28 C28       -14.3721   -2.8161   58.0105 C.3     1  ZINC000130059363    0.0700
     29 C29       -14.8191   -4.2491   58.3064 C.3     1  ZINC000130059363   -0.1800
     30 C30       -14.8402   -3.1966   59.4166 C.3     1  ZINC000130059363   -0.1600
     31 C31       -11.2613   -1.6126   55.5759 C.3     1  ZINC000130059363    0.1100
     32 H32       -11.6070    1.0341   54.7063 H       1  ZINC000130059363    0.0800
     33 H33       -11.5479    2.1310   53.3058 H       1  ZINC000130059363    0.0800
     34 H34       -12.5885    0.6876   53.2624 H       1  ZINC000130059363    0.1000
     35 H35        -7.6557    2.7319   52.9335 H       1  ZINC000130059363    0.1300
     36 H36        -5.5886    3.9327   52.3537 H       1  ZINC000130059363    0.1300
     37 H37        -3.8812    2.8468   50.9542 H       1  ZINC000130059363    0.1300
     38 H38        -4.2305    0.5561   50.1279 H       1  ZINC000130059363    0.1300
     39 H39        -6.2883   -0.6632   50.7030 H       1  ZINC000130059363    0.1400
     40 H40        -7.5874   -1.6830   51.5659 H       1  ZINC000130059363    0.1400
     41 H41        -9.6756   -2.8859   52.1530 H       1  ZINC000130059363    0.1400
     42 H42       -14.0701   -1.9962   55.4765 H       1  ZINC000130059363    0.0700
     43 H43       -13.9826   -2.9952   54.0029 H       1  ZINC000130059363    0.0900
     44 H44       -14.0136   -4.3592   56.1227 H       1  ZINC000130059363    0.0900
     45 H45       -12.5570   -4.6265   55.1377 H       1  ZINC000130059363    0.0800
     46 H46       -10.0456   -3.1702   58.3840 H       1  ZINC000130059363    0.0800
     47 H47        -9.1617   -2.0013   57.3684 H       1  ZINC000130059363    0.0900
     48 H48       -10.5013   -0.9811   59.2959 H       1  ZINC000130059363    0.1000
     49 H49       -10.8536   -0.3165   57.6857 H       1  ZINC000130059363    0.1000
     50 H50       -15.0365   -2.1951   57.4098 H       1  ZINC000130059363    0.1100
     51 H51       -15.7778   -4.5712   57.9000 H       1  ZINC000130059363    0.1100
     52 H52       -14.0471   -5.0171   58.3554 H       1  ZINC000130059363    0.1000
     53 H53       -14.0821   -3.2721   60.1961 H       1  ZINC000130059363    0.1000
     54 H54       -15.8128   -2.8263   59.7407 H       1  ZINC000130059363    0.1000
     55 H55       -10.3461   -1.2241   55.1293 H       1  ZINC000130059363    0.1000
     56 H56       -11.7221   -0.8417   56.1936 H       1  ZINC000130059363    0.0700
@<TRIPOS>BOND
     1     1     2    1
     2     1    32    1
     3     1    33    1
     4     1    34    1
     5     2    13   ar
     6     2     3   ar
     7     3     4   ar
     8     4     5    1
     9     4    11   ar
    10     5    10   ar
    11     5     6   ar
    12     6     7   ar
    13     6    35    1
    14     7     8   ar
    15     7    36    1
    16     8     9   ar
    17     8    37    1
    18     9    10   ar
    19     9    38    1
    20    10    39    1
    21    11    12   ar
    22    11    40    1
    23    12    13   ar
    24    12    41    1
    25    13    14    1
    26    14    15    2
    27    14    16   am
    28    16    31    1
    29    16    17    1
    30    17    18    1
    31    17    42    1
    32    17    43    1
    33    18    19    1
    34    18    44    1
    35    18    45    1
    36    19    20    1
    37    19    27    1
    38    19    21    1
    39    21    22    1
    40    21    23    1
    41    21    31    1
    42    23    24    1
    43    23    46    1
    44    23    47    1
    45    24    25    1
    46    24    48    1
    47    24    49    1
    48    25    26    2
    49    25    27   am
    50    27    28    1
    51    28    30    1
    52    28    29    1
    53    28    50    1
    54    29    30    1
    55    29    51    1
    56    29    52    1
    57    30    53    1
    58    30    54    1
    59    31    55    1
    60    31    56    1
@<TRIPOS>SUBSTRUCTURE
     1 ZINC000130059363        1 TEMP              0 ****  ****    0 ROOT


##########                                Name:    ZINC000790205345
##########                DOCK_Rotatable_Bonds:                   7
##########                         Heavy_Atoms:                  28
##########                    Molecular_Weight:             382.459
##########                DOCK_Rotatable_Bonds:                   7
##########                       Formal_Charge:          -0.0299997
##########                     HBond_Acceptors:                   6
##########                        HBond_Donors:                   0
##########                         Heavy_Atoms:                  28
##########                          Grid_Score:          -33.964062
##########                     Grid_vdw_energy:          -32.186939
##########                      Grid_es_energy:           -1.777123
##########           Internal_energy_repulsive:           28.986723

@<TRIPOS>MOLECULE
ZINC000790205345
 54 56 1 0 0
SMALL
USER_CHARGES


@<TRIPOS>ATOM
      1 C1        -13.1331   -4.3243   54.9587 C.3     1  ZINC000790205345   -0.1100
      2 C2        -12.1271   -4.0155   56.0375 C.ar    1  ZINC000790205345   -0.1300
      3 C3        -11.8412   -4.9603   57.0052 C.ar    1  ZINC000790205345   -0.0800
      4 C4        -10.9189   -4.6799   57.9950 C.ar    1  ZINC000790205345   -0.2100
      5 C5        -10.2798   -3.4490   58.0172 C.ar    1  ZINC000790205345    0.1300
      6 O6         -9.3718   -3.1709   58.9894 O.3     1  ZINC000790205345   -0.2900
      7 C7         -9.8344   -2.4185   60.1129 C.3     1  ZINC000790205345    0.0400
      8 C8         -9.7786   -0.9476   59.7898 C.2     1  ZINC000790205345    0.5200
      9 O9         -8.9802   -0.5355   58.9751 O.2     1  ZINC000790205345   -0.5100
     10 N10       -10.6159   -0.0900   60.4061 N.am    1  ZINC000790205345   -0.6100
     11 C11       -10.5628    1.3397   60.0905 C.3     1  ZINC000790205345    0.0700
     12 C12       -11.5791   -0.5873   61.3914 C.3     1  ZINC000790205345    0.1800
     13 H13       -11.3184   -1.6080   61.6714 H       1  ZINC000790205345    0.1200
     14 C14       -12.9842   -0.5676   60.7861 C.3     1  ZINC000790205345   -0.1600
     15 C15       -11.5466    0.2928   62.6143 C.ar    1  ZINC000790205345   -0.0700
     16 C16       -12.6042    1.1420   62.8822 C.ar    1  ZINC000790205345   -0.1300
     17 C17       -12.5779    1.9517   64.0032 C.ar    1  ZINC000790205345   -0.0900
     18 C18       -11.4947    1.9136   64.8589 C.ar    1  ZINC000790205345   -0.1500
     19 C19       -10.4310    1.0612   64.5928 C.ar    1  ZINC000790205345    0.1800
     20 N20        -9.3319    1.0201   65.4583 N.am    1  ZINC000790205345   -0.5700
     21 C21        -7.9242    0.9032   65.0483 C.3     1  ZINC000790205345    0.0600
     22 C22        -7.1521    0.9057   66.3817 C.3     1  ZINC000790205345    0.0400
     23 O23        -8.1947    1.0225   67.3928 O.3     1  ZINC000790205345   -0.3200
     24 C24        -9.3900    1.0867   66.7955 C.2     1  ZINC000790205345    0.6400
     25 O25       -10.4337    1.1879   67.4096 O.2     1  ZINC000790205345   -0.5000
     26 C26       -10.4628    0.2459   63.4693 C.ar    1  ZINC000790205345   -0.1400
     27 C27       -10.5684   -2.5023   57.0447 C.ar    1  ZINC000790205345   -0.1500
     28 C28       -11.4873   -2.7896   56.0542 C.ar    1  ZINC000790205345   -0.0500
     29 C29       -11.8011   -1.7621   54.9974 C.3     1  ZINC000790205345   -0.1200
     30 H30       -12.6260   -4.7818   54.1092 H       1  ZINC000790205345    0.0700
     31 H31       -13.8834   -5.0125   55.3479 H       1  ZINC000790205345    0.0600
     32 H32       -13.6175   -3.4017   54.6388 H       1  ZINC000790205345    0.0700
     33 H33       -12.3394   -5.9184   56.9878 H       1  ZINC000790205345    0.1300
     34 H34       -10.6962   -5.4182   58.7511 H       1  ZINC000790205345    0.1300
     35 H35       -10.8619   -2.7016   60.3415 H       1  ZINC000790205345    0.1000
     36 H36        -9.2002   -2.6255   60.9749 H       1  ZINC000790205345    0.0900
     37 H37       -11.1632    1.5384   59.2028 H       1  ZINC000790205345    0.0600
     38 H38       -10.9561    1.9119   60.9307 H       1  ZINC000790205345    0.0800
     39 H39        -9.5297    1.6324   59.9035 H       1  ZINC000790205345    0.0700
     40 H40       -13.2450    0.4530   60.5062 H       1  ZINC000790205345    0.0600
     41 H41       -13.0077   -1.2043   59.9017 H       1  ZINC000790205345    0.0700
     42 H42       -13.7009   -0.9378   61.5193 H       1  ZINC000790205345    0.0800
     43 H43       -13.4525    1.1736   62.2145 H       1  ZINC000790205345    0.1300
     44 H44       -13.4052    2.6145   64.2094 H       1  ZINC000790205345    0.1300
     45 H45       -11.4746    2.5464   65.7339 H       1  ZINC000790205345    0.1300
     46 H46        -7.7581   -0.0308   64.5115 H       1  ZINC000790205345    0.1000
     47 H47        -7.6320    1.7556   64.4351 H       1  ZINC000790205345    0.1000
     48 H48        -6.6018   -0.0269   66.5064 H       1  ZINC000790205345    0.1100
     49 H49        -6.4757    1.7590   66.4300 H       1  ZINC000790205345    0.1100
     50 H50        -9.6372   -0.4182   63.2599 H       1  ZINC000790205345    0.1600
     51 H51       -10.0723   -1.5432   57.0599 H       1  ZINC000790205345    0.1300
     52 H52       -11.1237   -1.8907   54.1532 H       1  ZINC000790205345    0.0700
     53 H53       -12.8298   -1.8898   54.6605 H       1  ZINC000790205345    0.0700
     54 H54       -11.6765   -0.7626   55.4141 H       1  ZINC000790205345    0.0700
@<TRIPOS>BOND
     1     1     2    1
     2     1    30    1
     3     1    31    1
     4     1    32    1
     5     2    28   ar
     6     2     3   ar
     7     3     4   ar
     8     3    33    1
     9     4     5   ar
    10     4    34    1
    11     5     6    1
    12     5    27   ar
    13     6     7    1
    14     7     8    1
    15     7    35    1
    16     7    36    1
    17     8     9    2
    18     8    10   am
    19    10    11    1
    20    10    12    1
    21    11    37    1
    22    11    38    1
    23    11    39    1
    24    12    13    1
    25    12    14    1
    26    12    15    1
    27    14    40    1
    28    14    41    1
    29    14    42    1
    30    15    26   ar
    31    15    16   ar
    32    16    17   ar
    33    16    43    1
    34    17    18   ar
    35    17    44    1
    36    18    19   ar
    37    18    45    1
    38    19    20    1
    39    19    26   ar
    40    20    24   am
    41    20    21    1
    42    21    22    1
    43    21    46    1
    44    21    47    1
    45    22    23    1
    46    22    48    1
    47    22    49    1
    48    23    24    1
    49    24    25    2
    50    26    50    1
    51    27    28   ar
    52    27    51    1
    53    28    29    1
    54    29    52    1
    55    29    53    1
    56    29    54    1
@<TRIPOS>SUBSTRUCTURE
     1 ZINC000790205345        1 TEMP              0 ****  ****    0 ROOT


##########                                Name:    ZINC000822449555
##########                DOCK_Rotatable_Bonds:                   5
##########                         Heavy_Atoms:                  27
##########                    Molecular_Weight:             366.383
##########                DOCK_Rotatable_Bonds:                   5
##########                       Formal_Charge:          -0.0100009
##########                     HBond_Acceptors:                  10
##########                        HBond_Donors:                   2
##########                         Heavy_Atoms:                  27
##########                          Grid_Score:          -33.960400
##########                     Grid_vdw_energy:          -33.206516
##########                      Grid_es_energy:           -0.753884
##########           Internal_energy_repulsive:            7.573040

@<TRIPOS>MOLECULE
ZINC000822449555
 45 48 1 0 0
SMALL
USER_CHARGES


@<TRIPOS>ATOM
      1 C1        -10.2249   -3.8415   58.6600 C.3     1  ZINC000822449555   -0.1100
      2 C2        -10.5003   -2.7404   57.6685 C.ar    1  ZINC000822449555    0.1400
      3 N3        -10.9777   -3.0411   56.4760 N.ar    1  ZINC000822449555   -0.5000
      4 C4        -11.2344   -2.1070   55.5738 C.ar    1  ZINC000822449555    0.3000
      5 N5        -11.7377   -2.4728   54.3283 N.3     1  ZINC000822449555   -0.4700
      6 C6        -10.8405   -2.0363   53.2486 C.3     1  ZINC000822449555    0.0200
      7 C7        -11.4001   -2.5098   51.9046 C.3     1  ZINC000822449555    0.0600
      8 O8        -12.7282   -2.0047   51.7423 O.3     1  ZINC000822449555   -0.3800
      9 C9        -13.6290   -2.4110   52.7762 C.3     1  ZINC000822449555    0.0600
     10 C10       -13.0919   -1.9365   54.1291 C.3     1  ZINC000822449555    0.0300
     11 C11       -11.0073   -0.7643   55.8562 C.ar    1  ZINC000822449555   -0.1700
     12 C12       -10.5072   -0.4114   57.0962 C.ar    1  ZINC000822449555   -0.0500
     13 C13       -10.2541   -1.4222   58.0222 C.ar    1  ZINC000822449555    0.0600
     14 N14        -9.7471   -1.1112   59.2908 N.am    1  ZINC000822449555   -0.6600
     15 C15       -10.5139   -0.4482   60.1789 C.2     1  ZINC000822449555    0.5700
     16 O16       -11.6457   -0.1199   59.8794 O.2     1  ZINC000822449555   -0.5100
     17 C17        -9.9794   -0.1203   61.5162 C.ar    1  ZINC000822449555   -0.1800
     18 C18       -10.1635    1.1577   62.0612 C.ar    1  ZINC000822449555   -0.0100
     19 C19        -9.6456    1.4175   63.3148 C.ar    1  ZINC000822449555   -0.1300
     20 C20        -8.9624    0.4081   63.9916 C.ar    1  ZINC000822449555    0.2300
     21 C21        -8.4031    0.6787   65.3384 C.2     1  ZINC000822449555    0.2100
     22 N22        -8.4827    1.8098   66.0118 N.2     1  ZINC000822449555   -0.2500
     23 N23        -7.8752    1.6429   67.1359 N.pl3   1  ZINC000822449555   -0.2200
     24 N24        -7.4132    0.4429   67.1965 N.2     1  ZINC000822449555   -0.0400
     25 N25        -7.7231   -0.1809   66.1110 N.2     1  ZINC000822449555   -0.2500
     26 N26        -8.8061   -0.7924   63.4466 N.ar    1  ZINC000822449555   -0.4500
     27 C27        -9.2885   -1.0813   62.2578 C.ar    1  ZINC000822449555    0.1400
     28 H28       -11.1180   -4.0240   59.2576 H       1  ZINC000822449555    0.0800
     29 H29        -9.9529   -4.7519   58.1257 H       1  ZINC000822449555    0.0800
     30 H30        -9.4046   -3.5450   59.3137 H       1  ZINC000822449555    0.0700
     31 H31       -10.7705   -0.9486   53.2509 H       1  ZINC000822449555    0.0600
     32 H32        -9.8504   -2.4657   53.4022 H       1  ZINC000822449555    0.1000
     33 H33       -10.7687   -2.1398   51.0968 H       1  ZINC000822449555    0.1100
     34 H34       -11.4198   -3.5995   51.8821 H       1  ZINC000822449555    0.0600
     35 H35       -14.6096   -1.9695   52.5987 H       1  ZINC000822449555    0.1000
     36 H36       -13.7135   -3.4977   52.7791 H       1  ZINC000822449555    0.0600
     37 H37       -13.7453   -2.2928   54.9254 H       1  ZINC000822449555    0.1000
     38 H38       -13.0580   -0.8471   54.1453 H       1  ZINC000822449555    0.0600
     39 H39       -11.2186   -0.0066   55.1161 H       1  ZINC000822449555    0.1400
     40 H40       -10.3208    0.6234   57.3430 H       1  ZINC000822449555    0.1500
     41 H41        -8.8442   -1.3731   59.5297 H       1  ZINC000822449555    0.4100
     42 H42       -10.6968    1.9208   61.5139 H       1  ZINC000822449555    0.1600
     43 H43        -9.7683    2.3912   63.7655 H       1  ZINC000822449555    0.1600
     44 H44        -7.7808    2.3159   67.8279 H       1  ZINC000822449555    0.4800
     45 H45        -9.1416   -2.0693   61.8472 H       1  ZINC000822449555    0.1700
@<TRIPOS>BOND
     1     1     2    1
     2     1    28    1
     3     1    29    1
     4     1    30    1
     5     2    13   ar
     6     2     3   ar
     7     3     4   ar
     8     4     5    1
     9     4    11   ar
    10     5    10    1
    11     5     6    1
    12     6     7    1
    13     6    31    1
    14     6    32    1
    15     7     8    1
    16     7    33    1
    17     7    34    1
    18     8     9    1
    19     9    10    1
    20     9    35    1
    21     9    36    1
    22    10    37    1
    23    10    38    1
    24    11    12   ar
    25    11    39    1
    26    12    13   ar
    27    12    40    1
    28    13    14    1
    29    14    15   am
    30    14    41    1
    31    15    16    2
    32    15    17    1
    33    17    27   ar
    34    17    18   ar
    35    18    19   ar
    36    18    42    1
    37    19    20   ar
    38    19    43    1
    39    20    21    1
    40    20    26   ar
    41    21    25    1
    42    21    22    2
    43    22    23    1
    44    23    24    1
    45    23    44    1
    46    24    25    2
    47    26    27   ar
    48    27    45    1
@<TRIPOS>SUBSTRUCTURE
     1 ZINC000822449555        1 TEMP              0 ****  ****    0 ROOT


##########                                Name:    ZINC000425987417
##########                DOCK_Rotatable_Bonds:                   9
##########                         Heavy_Atoms:                  25
##########                    Molecular_Weight:             357.419
##########                DOCK_Rotatable_Bonds:                   9
##########                       Formal_Charge:         -0.00999992
##########                     HBond_Acceptors:                   7
##########                        HBond_Donors:                   1
##########                         Heavy_Atoms:                  25
##########                          Grid_Score:          -33.950268
##########                     Grid_vdw_energy:          -33.375908
##########                      Grid_es_energy:           -0.574358
##########           Internal_energy_repulsive:           16.012728

@<TRIPOS>MOLECULE
ZINC000425987417
 51 52 1 0 0
SMALL
USER_CHARGES


@<TRIPOS>ATOM
      1 C1        -14.1805   -1.1885   55.7795 C.3     1  ZINC000425987417   -0.1500
      2 C2        -14.2812   -2.3625   54.8035 C.3     1  ZINC000425987417    0.0400
      3 N3        -13.2439   -3.3532   55.1205 N.3     1  ZINC000425987417   -0.5300
      4 C4        -13.6278   -4.1634   56.2843 C.3     1  ZINC000425987417    0.0400
      5 C5        -12.3688   -4.6468   57.0068 C.3     1  ZINC000425987417    0.1400
      6 N6        -11.7117   -3.5100   57.6565 N.am    1  ZINC000425987417   -0.7500
      7 C7        -10.5990   -3.7049   58.3916 C.2     1  ZINC000425987417    0.7200
      8 O8        -10.1406   -4.8242   58.5155 O.2     1  ZINC000425987417   -0.5800
      9 N9         -9.9945   -2.6591   58.9893 N.am    1  ZINC000425987417   -0.6200
     10 C10        -8.7779   -2.8383   59.7989 C.3     1  ZINC000425987417    0.1300
     11 C11        -9.1127   -2.4579   61.2403 C.3     1  ZINC000425987417   -0.1000
     12 C12        -9.8481   -1.1446   61.2911 C.ar    1  ZINC000425987417   -0.0600
     13 C13        -9.8502   -0.4536   62.4963 C.ar    1  ZINC000425987417   -0.1200
     14 C14       -10.5131    0.7506   62.6137 C.ar    1  ZINC000425987417   -0.1100
     15 C15       -11.1830    1.2757   61.5246 C.ar    1  ZINC000425987417   -0.1200
     16 C16       -11.1798    0.5930   60.3253 C.ar    1  ZINC000425987417   -0.1100
     17 C17       -10.5085   -0.6157   60.2044 C.ar    1  ZINC000425987417   -0.0900
     18 C18       -10.5189   -1.2958   58.8542 C.3     1  ZINC000425987417    0.1800
     19 H19       -11.5404   -1.3360   58.4762 H       1  ZINC000425987417    0.0900
     20 C20        -9.6457   -0.5041   57.8786 C.3     1  ZINC000425987417   -0.1600
     21 C21       -12.9561   -4.2044   53.9583 C.3     1  ZINC000425987417    0.0500
     22 C22       -11.5205   -3.9591   53.4895 C.3     1  ZINC000425987417   -0.1600
     23 C23       -11.4208   -2.5694   52.8574 C.3     1  ZINC000425987417    0.4500
     24 F24       -11.4067   -1.5987   53.8649 F       1  ZINC000425987417   -0.1800
     25 F25       -10.2426   -2.4810   52.1084 F       1  ZINC000425987417   -0.1800
     26 F26       -12.5220   -2.3573   52.0211 F       1  ZINC000425987417   -0.1900
     27 H27       -13.2145   -0.6980   55.6593 H       1  ZINC000425987417    0.0500
     28 H28       -14.9784   -0.4752   55.5734 H       1  ZINC000425987417    0.0600
     29 H29       -14.2767   -1.5561   56.8011 H       1  ZINC000425987417    0.0700
     30 H30       -15.2643   -2.8249   54.8916 H       1  ZINC000425987417    0.0800
     31 H31       -14.1394   -2.0013   53.7849 H       1  ZINC000425987417    0.0400
     32 H32       -14.2282   -3.5597   56.9649 H       1  ZINC000425987417    0.0500
     33 H33       -14.2093   -5.0235   55.9523 H       1  ZINC000425987417    0.0800
     34 H34       -12.6430   -5.3865   57.7589 H       1  ZINC000425987417    0.0800
     35 H35       -11.6866   -5.0974   56.2858 H       1  ZINC000425987417    0.0700
     36 H36       -12.0775   -2.6171   57.5576 H       1  ZINC000425987417    0.3900
     37 H37        -8.4574   -3.8794   59.7572 H       1  ZINC000425987417    0.1000
     38 H38        -7.9853   -2.1923   59.4215 H       1  ZINC000425987417    0.0700
     39 H39        -9.7366   -3.2355   61.6807 H       1  ZINC000425987417    0.0800
     40 H40        -8.1888   -2.3737   61.8126 H       1  ZINC000425987417    0.0900
     41 H41        -9.3288   -0.8628   63.3489 H       1  ZINC000425987417    0.1200
     42 H42       -10.5088    1.2815   63.5542 H       1  ZINC000425987417    0.1200
     43 H43       -11.7071    2.2159   61.6120 H       1  ZINC000425987417    0.1200
     44 H44       -11.7037    1.0024   59.4743 H       1  ZINC000425987417    0.1200
     45 H45        -8.6243   -0.4622   58.2569 H       1  ZINC000425987417    0.0700
     46 H46        -9.6528   -0.9939   56.9049 H       1  ZINC000425987417    0.0600
     47 H47       -10.0380    0.5080   57.7791 H       1  ZINC000425987417    0.0700
     48 H48       -13.0733   -5.2516   54.2370 H       1  ZINC000425987417    0.0500
     49 H49       -13.6480   -3.9636   53.1513 H       1  ZINC000425987417    0.0900
     50 H50       -10.8444   -4.0197   54.3424 H       1  ZINC000425987417    0.1200
     51 H51       -11.2449   -4.7138   52.7530 H       1  ZINC000425987417    0.1100
@<TRIPOS>BOND
     1     1     2    1
     2     1    27    1
     3     1    28    1
     4     1    29    1
     5     2     3    1
     6     2    30    1
     7     2    31    1
     8     3     4    1
     9     3    21    1
    10     4     5    1
    11     4    32    1
    12     4    33    1
    13     5     6    1
    14     5    34    1
    15     5    35    1
    16     6     7   am
    17     6    36    1
    18     7     8    2
    19     7     9   am
    20     9    18    1
    21     9    10    1
    22    10    11    1
    23    10    37    1
    24    10    38    1
    25    11    12    1
    26    11    39    1
    27    11    40    1
    28    12    17   ar
    29    12    13   ar
    30    13    14   ar
    31    13    41    1
    32    14    15   ar
    33    14    42    1
    34    15    16   ar
    35    15    43    1
    36    16    17   ar
    37    16    44    1
    38    17    18    1
    39    18    19    1
    40    18    20    1
    41    20    45    1
    42    20    46    1
    43    20    47    1
    44    21    22    1
    45    21    48    1
    46    21    49    1
    47    22    23    1
    48    22    50    1
    49    22    51    1
    50    23    24    1
    51    23    25    1
    52    23    26    1
@<TRIPOS>SUBSTRUCTURE
     1 ZINC000425987417        1 TEMP              0 ****  ****    0 ROOT


##########                                Name:    ZINC001078110631
##########                DOCK_Rotatable_Bonds:                   7
##########                         Heavy_Atoms:                  25
##########                    Molecular_Weight:             353.369
##########                DOCK_Rotatable_Bonds:                   7
##########                       Formal_Charge:           0.0100006
##########                     HBond_Acceptors:                   8
##########                        HBond_Donors:                   2
##########                         Heavy_Atoms:                  25
##########                          Grid_Score:          -33.919678
##########                     Grid_vdw_energy:          -32.674519
##########                      Grid_es_energy:           -1.245160
##########           Internal_energy_repulsive:           12.164412

@<TRIPOS>MOLECULE
ZINC001078110631
 46 48 1 0 0
SMALL
USER_CHARGES


@<TRIPOS>ATOM
      1 O1        -11.1438   -4.5946   57.0720 O.2     1  ZINC001078110631   -0.5100
      2 C2        -10.8530   -3.4145   57.0360 C.2     1  ZINC001078110631    0.5600
      3 N3        -10.9882   -2.7219   55.8878 N.am    1  ZINC001078110631   -0.7200
      4 C4        -11.4798   -3.3923   54.6815 C.3     1  ZINC001078110631    0.1500
      5 H5        -10.9785   -4.3513   54.5511 H       1  ZINC001078110631    0.1200
      6 C6        -11.2572   -2.4982   53.4428 C.3     1  ZINC001078110631    0.0300
      7 N7        -12.4572   -2.7253   52.5968 N.3     1  ZINC001078110631   -0.5000
      8 C8        -12.6517   -1.6182   51.6510 C.3     1  ZINC001078110631    0.0300
      9 C9        -14.0499   -1.7117   51.0370 C.3     1  ZINC001078110631    0.1300
     10 N10       -14.0997   -0.9105   49.8115 N.am    1  ZINC001078110631   -0.6200
     11 C11       -14.6314   -1.3895   48.5301 C.3     1  ZINC001078110631    0.1000
     12 C12       -14.8828   -0.1192   47.6876 C.3     1  ZINC001078110631   -0.1300
     13 C13       -13.8778    0.8768   48.3113 C.3     1  ZINC001078110631   -0.1600
     14 C14       -13.6695    0.3595   49.7176 C.2     1  ZINC001078110631    0.5200
     15 O15       -13.1790    0.9957   50.6263 O.2     1  ZINC001078110631   -0.5200
     16 C16       -13.5793   -2.7996   53.5675 C.3     1  ZINC001078110631    0.0000
     17 C17       -13.0070   -3.5930   54.7647 C.3     1  ZINC001078110631    0.1000
     18 H18       -13.3907   -3.1920   55.7029 H       1  ZINC001078110631    0.0700
     19 O19       -13.3377   -4.9782   54.6459 O.3     1  ZINC001078110631   -0.5500
     20 C20       -10.3577   -2.7393   58.2511 C.ar    1  ZINC001078110631   -0.1900
     21 C21       -10.4755   -1.3534   58.3808 C.ar    1  ZINC001078110631   -0.0300
     22 C22       -10.0115   -0.7279   59.5174 C.ar    1  ZINC001078110631   -0.1700
     23 C23        -9.4276   -1.4704   60.5332 C.ar    1  ZINC001078110631    0.1600
     24 F24        -8.9748   -0.8502   61.6447 F       1  ZINC001078110631   -0.1200
     25 C25        -9.3071   -2.8453   60.4131 C.ar    1  ZINC001078110631   -0.2000
     26 C26        -9.7732   -3.4852   59.2807 C.ar    1  ZINC001078110631    0.2000
     27 F27        -9.6557   -4.8260   59.1636 F       1  ZINC001078110631   -0.1000
     28 H28       -10.7601   -1.7795   55.8602 H       1  ZINC001078110631    0.4000
     29 H29       -11.1922   -1.4507   53.7368 H       1  ZINC001078110631    0.0500
     30 H30       -10.3550   -2.8018   52.9120 H       1  ZINC001078110631    0.1000
     31 H31       -12.5483   -0.6690   52.1766 H       1  ZINC001078110631    0.0400
     32 H32       -11.9032   -1.6795   50.8611 H       1  ZINC001078110631    0.0800
     33 H33       -14.2742   -2.7518   50.8004 H       1  ZINC001078110631    0.0900
     34 H34       -14.7849   -1.3343   51.7480 H       1  ZINC001078110631    0.0800
     35 H35       -13.9027   -2.0318   48.0358 H       1  ZINC001078110631    0.0700
     36 H36       -15.5655   -1.9288   48.6873 H       1  ZINC001078110631    0.0800
     37 H37       -14.6548   -0.2968   46.6367 H       1  ZINC001078110631    0.0900
     38 H38       -15.9072    0.2329   47.8090 H       1  ZINC001078110631    0.0800
     39 H39       -12.9400    0.8707   47.7557 H       1  ZINC001078110631    0.1100
     40 H40       -14.3012    1.8809   48.3360 H       1  ZINC001078110631    0.1000
     41 H41       -13.8776   -1.7992   53.8810 H       1  ZINC001078110631    0.0600
     42 H42       -14.4254   -3.3301   53.1306 H       1  ZINC001078110631    0.0900
     43 H43       -14.2639   -5.1792   54.8373 H       1  ZINC001078110631    0.3800
     44 H44       -10.9295   -0.7731   57.5912 H       1  ZINC001078110631    0.1500
     45 H45       -10.1023    0.3436   59.6175 H       1  ZINC001078110631    0.1500
     46 H46        -8.8515   -3.4182   61.2072 H       1  ZINC001078110631    0.1600
@<TRIPOS>BOND
     1     1     2    2
     2     2     3   am
     3     2    20    1
     4     3     4    1
     5     3    28    1
     6     4     5    1
     7     4    17    1
     8     4     6    1
     9     6     7    1
    10     6    29    1
    11     6    30    1
    12     7     8    1
    13     7    16    1
    14     8     9    1
    15     8    31    1
    16     8    32    1
    17     9    10    1
    18     9    33    1
    19     9    34    1
    20    10    14   am
    21    10    11    1
    22    11    12    1
    23    11    35    1
    24    11    36    1
    25    12    13    1
    26    12    37    1
    27    12    38    1
    28    13    14    1
    29    13    39    1
    30    13    40    1
    31    14    15    2
    32    16    17    1
    33    16    41    1
    34    16    42    1
    35    17    18    1
    36    17    19    1
    37    19    43    1
    38    20    26   ar
    39    20    21   ar
    40    21    22   ar
    41    21    44    1
    42    22    23   ar
    43    22    45    1
    44    23    24    1
    45    23    25   ar
    46    25    26   ar
    47    25    46    1
    48    26    27    1
@<TRIPOS>SUBSTRUCTURE
     1 ZINC001078110631        1 TEMP              0 ****  ****    0 ROOT


##########                                Name:    ZINC000274225049
##########                DOCK_Rotatable_Bonds:                   6
##########                         Heavy_Atoms:                  25
##########                    Molecular_Weight:             380.895
##########                DOCK_Rotatable_Bonds:                   6
##########                       Formal_Charge:           0.0200006
##########                     HBond_Acceptors:                   7
##########                        HBond_Donors:                   2
##########                         Heavy_Atoms:                  25
##########                          Grid_Score:          -33.908424
##########                     Grid_vdw_energy:          -30.455530
##########                      Grid_es_energy:           -3.452894
##########           Internal_energy_repulsive:           12.235756

@<TRIPOS>MOLECULE
ZINC000274225049
 46 48 1 0 0
SMALL
USER_CHARGES


@<TRIPOS>ATOM
      1 C1        -10.3345    0.8690   60.9355 C.3     1  ZINC000274225049   -0.1600
      2 C2        -10.4393   -0.4425   61.7164 C.3     1  ZINC000274225049    0.2000
      3 H3        -11.3600   -0.4452   62.3000 H       1  ZINC000274225049    0.1100
      4 N4         -9.2904   -0.5681   62.6165 N.am    1  ZINC000274225049   -0.7400
      5 C5         -9.3351   -0.0200   63.8470 C.2     1  ZINC000274225049    0.7100
      6 O6        -10.3296    0.5774   64.2105 O.2     1  ZINC000274225049   -0.5800
      7 N7         -8.2774   -0.1343   64.6745 N.am    1  ZINC000274225049   -0.7500
      8 C8         -8.3267    0.4599   66.0126 C.3     1  ZINC000274225049    0.1500
      9 C9         -6.9322    0.9535   66.4032 C.3     1  ZINC000274225049   -0.1000
     10 H10        -6.2343    0.1167   66.4302 H       1  ZINC000274225049    0.1000
     11 C11        -6.9829    1.6422   67.7783 C.3     1  ZINC000274225049   -0.1100
     12 C12        -5.6680    2.4186   67.9912 C.3     1  ZINC000274225049   -0.5900
     13 S13        -5.0960    2.8562   66.3098 S.o2    1  ZINC000274225049    2.3900
     14 O14        -5.2018    4.2614   66.1272 O.2     1  ZINC000274225049   -0.9300
     15 O15        -3.8642    2.1989   66.0455 O.2     1  ZINC000274225049   -0.9300
     16 C16        -6.4432    2.0201   65.3895 C.3     1  ZINC000274225049   -0.5900
     17 C17       -10.4519   -1.6011   60.7529 C.ar    1  ZINC000274225049   -0.0700
     18 C18       -11.6292   -1.9309   60.0607 C.ar    1  ZINC000274225049   -0.0300
     19 C19       -12.8141   -1.1979   60.2454 C.ar    1  ZINC000274225049   -0.1100
     20 C20       -13.9353   -1.5460   59.5573 C.ar    1  ZINC000274225049   -0.1100
     21 C21       -13.9281   -2.6208   58.6699 C.ar    1  ZINC000274225049   -0.1100
     22 C22       -12.7994   -3.3533   58.4657 C.ar    1  ZINC000274225049   -0.1000
     23 C23       -11.6219   -3.0238   59.1583 C.ar    1  ZINC000274225049   -0.0400
     24 C24       -10.4363   -3.7568   58.9732 C.ar    1  ZINC000274225049   -0.0300
     25 Cl25      -10.4026   -5.0990   57.8727 Cl      1  ZINC000274225049   -0.0600
     26 C26        -9.3139   -3.4074   59.6621 C.ar    1  ZINC000274225049   -0.1000
     27 C27        -9.3209   -2.3299   60.5450 C.ar    1  ZINC000274225049   -0.1000
     28 H28       -10.3255    1.7071   61.6323 H       1  ZINC000274225049    0.0700
     29 H29        -9.4138    0.8718   60.3520 H       1  ZINC000274225049    0.0700
     30 H30       -11.1894    0.9625   60.2658 H       1  ZINC000274225049    0.0800
     31 H31        -8.4973   -1.0458   62.3269 H       1  ZINC000274225049    0.4000
     32 H32        -7.4835   -0.6099   64.3840 H       1  ZINC000274225049    0.4000
     33 H33        -9.0223    1.2992   66.0121 H       1  ZINC000274225049    0.0800
     34 H34        -8.6614   -0.2889   66.7305 H       1  ZINC000274225049    0.0800
     35 H35        -7.8256    2.3326   67.8115 H       1  ZINC000274225049    0.0900
     36 H36        -7.0957    0.8913   68.5602 H       1  ZINC000274225049    0.0900
     37 H37        -5.8513    3.3204   68.5752 H       1  ZINC000274225049    0.1400
     38 H38        -4.9321    1.7873   68.4889 H       1  ZINC000274225049    0.1400
     39 H39        -6.0592    1.5485   64.4850 H       1  ZINC000274225049    0.1400
     40 H40        -7.2427    2.7218   65.1517 H       1  ZINC000274225049    0.1400
     41 H41       -12.8345   -0.3628   60.9300 H       1  ZINC000274225049    0.1300
     42 H42       -14.8446   -0.9813   59.7013 H       1  ZINC000274225049    0.1300
     43 H43       -14.8318   -2.8764   58.1367 H       1  ZINC000274225049    0.1300
     44 H44       -12.8087   -4.1837   57.7752 H       1  ZINC000274225049    0.1300
     45 H45        -8.4044   -3.9720   59.5188 H       1  ZINC000274225049    0.1300
     46 H46        -8.4176   -2.0740   61.0787 H       1  ZINC000274225049    0.1300
@<TRIPOS>BOND
     1     1     2    1
     2     1    28    1
     3     1    29    1
     4     1    30    1
     5     2     3    1
     6     2     4    1
     7     2    17    1
     8     4     5   am
     9     4    31    1
    10     5     6    2
    11     5     7   am
    12     7     8    1
    13     7    32    1
    14     8     9    1
    15     8    33    1
    16     8    34    1
    17     9    10    1
    18     9    16    1
    19     9    11    1
    20    11    12    1
    21    11    35    1
    22    11    36    1
    23    12    13    1
    24    12    37    1
    25    12    38    1
    26    13    14    2
    27    13    15    2
    28    13    16    1
    29    16    39    1
    30    16    40    1
    31    17    27   ar
    32    17    18   ar
    33    18    23   ar
    34    18    19   ar
    35    19    20   ar
    36    19    41    1
    37    20    21   ar
    38    20    42    1
    39    21    22   ar
    40    21    43    1
    41    22    23   ar
    42    22    44    1
    43    23    24   ar
    44    24    25    1
    45    24    26   ar
    46    26    27   ar
    47    26    45    1
    48    27    46    1
@<TRIPOS>SUBSTRUCTURE
     1 ZINC000274225049        1 TEMP              0 ****  ****    0 ROOT


##########                                Name:    ZINC000245764166
##########                DOCK_Rotatable_Bonds:                   8
##########                         Heavy_Atoms:                  26
##########                    Molecular_Weight:             359.512
##########                DOCK_Rotatable_Bonds:                   8
##########                       Formal_Charge:          -0.0100008
##########                     HBond_Acceptors:                   5
##########                        HBond_Donors:                   2
##########                         Heavy_Atoms:                  26
##########                          Grid_Score:          -33.906933
##########                     Grid_vdw_energy:          -31.950006
##########                      Grid_es_energy:           -1.956927
##########           Internal_energy_repulsive:           31.085938

@<TRIPOS>MOLECULE
ZINC000245764166
 59 61 1 0 0
SMALL
USER_CHARGES


@<TRIPOS>ATOM
      1 C1         -8.3013    1.6762   53.6744 C.3     1  ZINC000245764166    0.0200
      2 N2         -7.5399    2.6493   54.4690 N.3     1  ZINC000245764166   -0.5300
      3 C3         -7.0386    3.7416   53.6243 C.3     1  ZINC000245764166    0.0600
      4 C4         -5.7730    3.3024   52.9339 C.ar    1  ZINC000245764166   -0.0800
      5 C5         -4.5427    3.6227   53.4769 C.ar    1  ZINC000245764166   -0.1000
      6 C6         -3.3818    3.2200   52.8437 C.ar    1  ZINC000245764166   -0.1200
      7 C7         -3.4511    2.4966   51.6678 C.ar    1  ZINC000245764166   -0.1200
      8 C8         -4.6814    2.1755   51.1253 C.ar    1  ZINC000245764166   -0.1200
      9 C9         -5.8424    2.5746   51.7608 C.ar    1  ZINC000245764166   -0.1200
     10 C10        -8.3488    3.1708   55.5788 C.3     1  ZINC000245764166    0.0500
     11 C11        -7.5378    3.1076   56.8746 C.3     1  ZINC000245764166    0.1900
     12 C12        -6.2393    2.3375   56.6266 C.3     1  ZINC000245764166   -0.1600
     13 C13        -7.2080    4.5273   57.3397 C.3     1  ZINC000245764166   -0.1500
     14 N14        -8.3207    2.4249   57.9077 N.am    1  ZINC000245764166   -0.7400
     15 C15        -8.7710    1.1726   57.6946 C.2     1  ZINC000245764166    0.7000
     16 O16        -8.5289    0.6100   56.6443 O.2     1  ZINC000245764166   -0.5800
     17 N17        -9.4899    0.5439   58.6457 N.am    1  ZINC000245764166   -0.7500
     18 C18        -9.9808   -0.8167   58.4132 C.3     1  ZINC000245764166    0.1800
     19 H19        -9.1800   -1.4185   57.9838 H       1  ZINC000245764166    0.0900
     20 C20       -11.1523   -0.7678   57.4356 C.3     1  ZINC000245764166   -0.1300
     21 C21       -11.6158   -2.2017   57.1558 C.3     1  ZINC000245764166   -0.1100
     22 C22       -12.1290   -2.8053   58.4630 C.3     1  ZINC000245764166   -0.1100
     23 C23       -11.0546   -2.8133   59.5249 C.3     1  ZINC000245764166    0.0900
     24 H24       -11.4908   -3.1396   60.4689 H       1  ZINC000245764166    0.0600
     25 O25        -9.9514   -3.6704   59.2013 O.3     1  ZINC000245764166   -0.3600
     26 C26        -8.8810   -3.3009   60.0932 C.3     1  ZINC000245764166    0.0500
     27 C27        -9.1066   -1.8293   60.4957 C.3     1  ZINC000245764166   -0.1500
     28 C28       -10.4129   -1.4308   59.7465 C.3     1  ZINC000245764166   -0.1300
     29 H29       -11.0466   -0.7660   60.3334 H       1  ZINC000245764166    0.1000
     30 H30        -7.6734    1.2932   52.8699 H       1  ZINC000245764166    0.0800
     31 H31        -8.6157    0.8515   54.3139 H       1  ZINC000245764166    0.0700
     32 H32        -9.1799    2.1620   53.2497 H       1  ZINC000245764166    0.0200
     33 H33        -7.7900    3.9973   52.8772 H       1  ZINC000245764166    0.0400
     34 H34        -6.8306    4.6139   54.2438 H       1  ZINC000245764166    0.1100
     35 H35        -4.4886    4.1878   54.3956 H       1  ZINC000245764166    0.1200
     36 H36        -2.4206    3.4707   53.2675 H       1  ZINC000245764166    0.1200
     37 H37        -2.5442    2.1825   51.1728 H       1  ZINC000245764166    0.1200
     38 H38        -4.7356    1.6106   50.2064 H       1  ZINC000245764166    0.1200
     39 H39        -6.8036    2.3238   51.3370 H       1  ZINC000245764166    0.1200
     40 H40        -8.6246    4.2050   55.3728 H       1  ZINC000245764166    0.0400
     41 H41        -9.2510    2.5684   55.6852 H       1  ZINC000245764166    0.1000
     42 H42        -5.6568    2.8455   55.8579 H       1  ZINC000245764166    0.0700
     43 H43        -5.6615    2.2925   57.5499 H       1  ZINC000245764166    0.0800
     44 H44        -6.4742    1.3260   56.2953 H       1  ZINC000245764166    0.0500
     45 H45        -8.1262    5.0359   57.6337 H       1  ZINC000245764166    0.0600
     46 H46        -6.5290    4.4823   58.1912 H       1  ZINC000245764166    0.0800
     47 H47        -6.7338    5.0754   56.5255 H       1  ZINC000245764166    0.0600
     48 H48        -8.5149    2.8741   58.7453 H       1  ZINC000245764166    0.3900
     49 H49        -9.6820    0.9923   59.4841 H       1  ZINC000245764166    0.3900
     50 H50       -11.9712   -0.1976   57.8741 H       1  ZINC000245764166    0.0600
     51 H51       -10.8331   -0.2984   56.5052 H       1  ZINC000245764166    0.0700
     52 H52       -12.4170   -2.1911   56.4167 H       1  ZINC000245764166    0.0700
     53 H53       -10.7790   -2.7919   56.7823 H       1  ZINC000245764166    0.0700
     54 H54       -12.9767   -2.2193   58.8179 H       1  ZINC000245764166    0.0800
     55 H55       -12.4563   -3.8286   58.2791 H       1  ZINC000245764166    0.0700
     56 H56        -8.9018   -3.9348   60.9796 H       1  ZINC000245764166    0.0600
     57 H57        -7.9226   -3.4032   59.5842 H       1  ZINC000245764166    0.0800
     58 H58        -9.2435   -1.7445   61.5738 H       1  ZINC000245764166    0.0800
     59 H59        -8.2724   -1.2104   60.1655 H       1  ZINC000245764166    0.0800
@<TRIPOS>BOND
     1     1     2    1
     2     1    30    1
     3     1    31    1
     4     1    32    1
     5     2     3    1
     6     2    10    1
     7     3     4    1
     8     3    33    1
     9     3    34    1
    10     4     9   ar
    11     4     5   ar
    12     5     6   ar
    13     5    35    1
    14     6     7   ar
    15     6    36    1
    16     7     8   ar
    17     7    37    1
    18     8     9   ar
    19     8    38    1
    20     9    39    1
    21    10    11    1
    22    10    40    1
    23    10    41    1
    24    11    12    1
    25    11    13    1
    26    11    14    1
    27    12    42    1
    28    12    43    1
    29    12    44    1
    30    13    45    1
    31    13    46    1
    32    13    47    1
    33    14    15   am
    34    14    48    1
    35    15    16    2
    36    15    17   am
    37    17    18    1
    38    17    49    1
    39    18    19    1
    40    18    28    1
    41    18    20    1
    42    20    21    1
    43    20    50    1
    44    20    51    1
    45    21    22    1
    46    21    52    1
    47    21    53    1
    48    22    23    1
    49    22    54    1
    50    22    55    1
    51    23    24    1
    52    23    28    1
    53    23    25    1
    54    25    26    1
    55    26    27    1
    56    26    56    1
    57    26    57    1
    58    27    28    1
    59    27    58    1
    60    27    59    1
    61    28    29    1
@<TRIPOS>SUBSTRUCTURE
     1 ZINC000245764166        1 TEMP              0 ****  ****    0 ROOT


##########                                Name:    ZINC001341052241
##########                DOCK_Rotatable_Bonds:                   7
##########                         Heavy_Atoms:                  24
##########                    Molecular_Weight:             336.478
##########                DOCK_Rotatable_Bonds:                   7
##########                       Formal_Charge:         5.96046e-08
##########                     HBond_Acceptors:                   6
##########                        HBond_Donors:                   0
##########                         Heavy_Atoms:                  24
##########                          Grid_Score:          -33.887459
##########                     Grid_vdw_energy:          -33.447845
##########                      Grid_es_energy:           -0.439612
##########           Internal_energy_repulsive:           15.741662

@<TRIPOS>MOLECULE
ZINC001341052241
 56 58 1 0 0
SMALL
USER_CHARGES


@<TRIPOS>ATOM
      1 C1        -14.6996   -3.3028   59.4858 C.3     1  ZINC001341052241   -0.1700
      2 C2        -14.1685   -3.0810   58.0682 C.3     1  ZINC001341052241    0.1100
      3 N3        -12.8505   -3.7069   57.9371 N.pl3   1  ZINC001341052241   -0.4500
      4 C4        -12.5205   -4.7810   57.1579 C.2     1  ZINC001341052241    0.1800
      5 C5        -13.4527   -5.5533   56.2603 C.3     1  ZINC001341052241    0.1500
      6 O6        -13.1968   -5.2079   54.8975 O.3     1  ZINC001341052241   -0.3700
      7 C7        -13.0858   -3.8022   54.6653 C.3     1  ZINC001341052241    0.0900
      8 C8        -14.0232   -3.3980   53.5257 C.3     1  ZINC001341052241   -0.1400
      9 C9        -13.9045   -1.8930   53.2772 C.3     1  ZINC001341052241   -0.1200
     10 C10       -12.4624   -1.5511   52.8968 C.3     1  ZINC001341052241   -0.1200
     11 C11       -11.5250   -1.9554   54.0364 C.3     1  ZINC001341052241   -0.1200
     12 C12       -11.6438   -3.4604   54.2850 C.3     1  ZINC001341052241   -0.1200
     13 N13       -11.2505   -5.0124   57.3346 N.2     1  ZINC001341052241   -0.2600
     14 N14       -10.7582   -4.1607   58.1617 N.2     1  ZINC001341052241   -0.3100
     15 C15       -11.6976   -3.3393   58.5677 C.2     1  ZINC001341052241    0.3500
     16 N16       -11.5461   -2.2926   59.4631 N.3     1  ZINC001341052241   -0.4600
     17 C17       -10.3990   -2.5214   60.3509 C.3     1  ZINC001341052241    0.0700
     18 C18       -10.3493   -1.4232   61.4156 C.3     1  ZINC001341052241   -0.1100
     19 C19       -10.2241   -0.0598   60.7302 C.3     1  ZINC001341052241   -0.0900
     20 C20       -10.2352    1.0466   61.7869 C.3     1  ZINC001341052241    0.0700
     21 O21        -9.2631    0.7544   62.7928 O.3     1  ZINC001341052241   -0.3900
     22 C22        -9.4753    1.4468   64.0247 C.3     1  ZINC001341052241    0.0300
     23 C23       -11.4052    0.1329   59.7751 C.3     1  ZINC001341052241   -0.1100
     24 C24       -11.4242   -1.0103   58.7579 C.3     1  ZINC001341052241    0.0700
     25 H25       -14.7747   -4.3722   59.6825 H       1  ZINC001341052241    0.0600
     26 H26       -14.0179   -2.8481   60.2046 H       1  ZINC001341052241    0.0700
     27 H27       -15.6848   -2.8459   59.5804 H       1  ZINC001341052241    0.0800
     28 H28       -14.0837   -2.0115   57.8752 H       1  ZINC001341052241    0.0900
     29 H29       -14.8556   -3.5266   57.3489 H       1  ZINC001341052241    0.1000
     30 H30       -13.2901   -6.6219   56.4009 H       1  ZINC001341052241    0.0900
     31 H31       -14.4847   -5.3069   56.5101 H       1  ZINC001341052241    0.0700
     32 H32       -13.3606   -3.2615   55.5711 H       1  ZINC001341052241    0.0600
     33 H33       -13.7485   -3.9387   52.6200 H       1  ZINC001341052241    0.0700
     34 H34       -15.0505   -3.6415   53.7967 H       1  ZINC001341052241    0.0700
     35 H35       -14.1793   -1.3523   54.1828 H       1  ZINC001341052241    0.0600
     36 H36       -14.5724   -1.6051   52.4652 H       1  ZINC001341052241    0.0700
     37 H37       -12.3778   -0.4790   52.7197 H       1  ZINC001341052241    0.0600
     38 H38       -12.1876   -2.0919   51.9912 H       1  ZINC001341052241    0.0600
     39 H39       -11.7998   -1.4146   54.9421 H       1  ZINC001341052241    0.0600
     40 H40       -10.4977   -1.7118   53.7654 H       1  ZINC001341052241    0.0700
     41 H41       -10.9759   -3.7483   55.0970 H       1  ZINC001341052241    0.0700
     42 H42       -11.3689   -4.0010   53.3793 H       1  ZINC001341052241    0.0700
     43 H43        -9.4786   -2.5032   59.7672 H       1  ZINC001341052241    0.0600
     44 H44       -10.5026   -3.4923   60.8352 H       1  ZINC001341052241    0.0800
     45 H45        -9.4889   -1.5846   62.0649 H       1  ZINC001341052241    0.0800
     46 H46       -11.2636   -1.4498   62.0087 H       1  ZINC001341052241    0.0800
     47 H47        -9.2903   -0.0185   60.1694 H       1  ZINC001341052241    0.0800
     48 H48       -11.2237    1.1037   62.2428 H       1  ZINC001341052241    0.0500
     49 H49        -9.9962    2.0005   61.3169 H       1  ZINC001341052241    0.0500
     50 H50        -9.4420    2.5218   63.8478 H       1  ZINC001341052241    0.0400
     51 H51        -8.6960    1.1712   64.7353 H       1  ZINC001341052241    0.0900
     52 H52       -10.4498    1.1754   64.4308 H       1  ZINC001341052241    0.0400
     53 H53       -12.3360    0.1309   60.3424 H       1  ZINC001341052241    0.0700
     54 H54       -11.2990    1.0835   59.2523 H       1  ZINC001341052241    0.0800
     55 H55       -10.4991   -0.9992   58.1816 H       1  ZINC001341052241    0.0600
     56 H56       -12.2725   -0.8837   58.0851 H       1  ZINC001341052241    0.0800
@<TRIPOS>BOND
     1     1     2    1
     2     1    25    1
     3     1    26    1
     4     1    27    1
     5     2     3    1
     6     2    28    1
     7     2    29    1
     8     3    15    1
     9     3     4    1
    10     4     5    1
    11     4    13    2
    12     5     6    1
    13     5    30    1
    14     5    31    1
    15     6     7    1
    16     7    12    1
    17     7     8    1
    18     7    32    1
    19     8     9    1
    20     8    33    1
    21     8    34    1
    22     9    10    1
    23     9    35    1
    24     9    36    1
    25    10    11    1
    26    10    37    1
    27    10    38    1
    28    11    12    1
    29    11    39    1
    30    11    40    1
    31    12    41    1
    32    12    42    1
    33    13    14    1
    34    14    15    2
    35    15    16    1
    36    16    24    1
    37    16    17    1
    38    17    18    1
    39    17    43    1
    40    17    44    1
    41    18    19    1
    42    18    45    1
    43    18    46    1
    44    19    20    1
    45    19    23    1
    46    19    47    1
    47    20    21    1
    48    20    48    1
    49    20    49    1
    50    21    22    1
    51    22    50    1
    52    22    51    1
    53    22    52    1
    54    23    24    1
    55    23    53    1
    56    23    54    1
    57    24    55    1
    58    24    56    1
@<TRIPOS>SUBSTRUCTURE
     1 ZINC001341052241        1 TEMP              0 ****  ****    0 ROOT


##########                                Name:    ZINC000863246516
##########                DOCK_Rotatable_Bonds:                   5
##########                         Heavy_Atoms:                  25
##########                    Molecular_Weight:             356.489
##########                DOCK_Rotatable_Bonds:                   5
##########                       Formal_Charge:         -0.00999938
##########                     HBond_Acceptors:                   5
##########                        HBond_Donors:                   0
##########                         Heavy_Atoms:                  25
##########                          Grid_Score:          -33.878098
##########                     Grid_vdw_energy:          -33.577736
##########                      Grid_es_energy:           -0.300362
##########           Internal_energy_repulsive:           10.285878

@<TRIPOS>MOLECULE
ZINC000863246516
 49 52 1 0 0
SMALL
USER_CHARGES


@<TRIPOS>ATOM
      1 C1        -15.1657   -1.7030   51.3859 C.3     1  ZINC000863246516   -0.0600
      2 C2        -13.8218   -2.0580   51.9684 C.2     1  ZINC000863246516   -0.2000
      3 C3        -13.5811   -2.7918   53.0460 C.2     1  ZINC000863246516    0.0900
      4 C4        -14.6986   -3.3910   53.8603 C.3     1  ZINC000863246516   -0.1000
      5 N5        -12.2730   -2.9779   53.3807 N.am    1  ZINC000863246516   -0.5300
      6 C6        -11.8904   -3.7716   54.5512 C.3     1  ZINC000863246516    0.1200
      7 C7        -11.7559   -2.8537   55.7678 C.3     1  ZINC000863246516   -0.1500
      8 C8        -11.1805   -3.6320   56.9230 C.2     1  ZINC000863246516    0.5400
      9 O9        -11.3246   -4.8351   56.9753 O.2     1  ZINC000863246516   -0.5300
     10 N10       -10.5059   -2.9910   57.8979 N.am    1  ZINC000863246516   -0.6100
     11 C11        -9.8994   -3.6301   59.0713 C.3     1  ZINC000863246516    0.1100
     12 C12        -8.8746   -2.6303   59.6403 C.3     1  ZINC000863246516   -0.1300
     13 H13        -7.8328   -2.8411   59.3993 H       1  ZINC000863246516    0.1000
     14 C14        -9.1717   -2.2233   61.0931 C.3     1  ZINC000863246516   -0.1200
     15 C15       -10.2512   -1.2828   60.5336 C.3     1  ZINC000863246516   -0.0600
     16 H16       -11.2288   -1.7539   60.4301 H       1  ZINC000863246516    0.1000
     17 C17       -10.3153    0.0479   61.2381 C.ar    1  ZINC000863246516   -0.0700
     18 C18       -10.7374    1.1725   60.5540 C.ar    1  ZINC000863246516   -0.1200
     19 C19       -10.7961    2.3930   61.2002 C.ar    1  ZINC000863246516   -0.1200
     20 C20       -10.4332    2.4890   62.5306 C.ar    1  ZINC000863246516   -0.1200
     21 C21       -10.0121    1.3641   63.2150 C.ar    1  ZINC000863246516   -0.1200
     22 C22        -9.9574    0.1427   62.5699 C.ar    1  ZINC000863246516   -0.1200
     23 C23        -9.4336   -1.2509   59.2108 C.3     1  ZINC000863246516   -0.1100
     24 H24        -8.7135   -0.4381   59.1170 H       1  ZINC000863246516    0.1200
     25 C25       -10.2577   -1.5465   57.9489 C.3     1  ZINC000863246516    0.1200
     26 C26       -11.3496   -2.4044   52.5929 C.2     1  ZINC000863246516    0.4800
     27 O27       -10.1394   -2.4538   52.7244 O.2     1  ZINC000863246516   -0.4700
     28 S28       -12.2266   -1.5900   51.3546 S.3     1  ZINC000863246516    0.0100
     29 H29       -15.0252   -1.0909   50.4950 H       1  ZINC000863246516    0.0700
     30 H30       -15.6988   -2.6156   51.1194 H       1  ZINC000863246516    0.0800
     31 H31       -15.7449   -1.1456   52.1220 H       1  ZINC000863246516    0.0800
     32 H32       -15.6569   -3.1187   53.4180 H       1  ZINC000863246516    0.0900
     33 H33       -14.5987   -4.4764   53.8712 H       1  ZINC000863246516    0.0800
     34 H34       -14.6485   -3.0113   54.8808 H       1  ZINC000863246516    0.0800
     35 H35       -12.6552   -4.5234   54.7460 H       1  ZINC000863246516    0.1000
     36 H36       -10.9370   -4.2641   54.3603 H       1  ZINC000863246516    0.1000
     37 H37       -11.0943   -2.0224   55.5244 H       1  ZINC000863246516    0.1000
     38 H38       -12.7378   -2.4683   56.0425 H       1  ZINC000863246516    0.1000
     39 H39       -10.6651   -3.8442   59.8170 H       1  ZINC000863246516    0.0700
     40 H40        -9.3972   -4.5515   58.7764 H       1  ZINC000863246516    0.0800
     41 H41        -9.5729   -3.0351   61.6999 H       1  ZINC000863246516    0.0800
     42 H42        -8.3465   -1.7008   61.5769 H       1  ZINC000863246516    0.0900
     43 H43       -11.0209    1.0976   59.5146 H       1  ZINC000863246516    0.1200
     44 H44       -11.1252    3.2719   60.6656 H       1  ZINC000863246516    0.1200
     45 H45       -10.4784    3.4427   63.0353 H       1  ZINC000863246516    0.1200
     46 H46        -9.7281    1.4391   64.2543 H       1  ZINC000863246516    0.1200
     47 H47        -9.6283   -0.7361   63.1046 H       1  ZINC000863246516    0.1200
     48 H48        -9.7087   -1.2209   57.0654 H       1  ZINC000863246516    0.0700
     49 H49       -11.2133   -1.0248   58.0021 H       1  ZINC000863246516    0.0700
@<TRIPOS>BOND
     1     1     2    1
     2     1    29    1
     3     1    30    1
     4     1    31    1
     5     2    28    1
     6     2     3    2
     7     3     4    1
     8     3     5    1
     9     4    32    1
    10     4    33    1
    11     4    34    1
    12     5     6    1
    13     5    26   am
    14     6     7    1
    15     6    35    1
    16     6    36    1
    17     7     8    1
    18     7    37    1
    19     7    38    1
    20     8     9    2
    21     8    10   am
    22    10    25    1
    23    10    11    1
    24    11    12    1
    25    11    39    1
    26    11    40    1
    27    12    13    1
    28    12    23    1
    29    12    14    1
    30    14    15    1
    31    14    41    1
    32    14    42    1
    33    15    16    1
    34    15    17    1
    35    15    23    1
    36    17    22   ar
    37    17    18   ar
    38    18    19   ar
    39    18    43    1
    40    19    20   ar
    41    19    44    1
    42    20    21   ar
    43    20    45    1
    44    21    22   ar
    45    21    46    1
    46    22    47    1
    47    23    24    1
    48    23    25    1
    49    25    48    1
    50    25    49    1
    51    26    27    2
    52    26    28    1
@<TRIPOS>SUBSTRUCTURE
     1 ZINC000863246516        1 TEMP              0 ****  ****    0 ROOT


##########                                Name:    ZINC000015179664
##########                DOCK_Rotatable_Bonds:                   8
##########                         Heavy_Atoms:                  25
##########                    Molecular_Weight:             361.422
##########                DOCK_Rotatable_Bonds:                   8
##########                       Formal_Charge:        -2.23517e-07
##########                     HBond_Acceptors:                   8
##########                        HBond_Donors:                   1
##########                         Heavy_Atoms:                  25
##########                          Grid_Score:          -33.862698
##########                     Grid_vdw_energy:          -33.536850
##########                      Grid_es_energy:           -0.325847
##########           Internal_energy_repulsive:           22.089302

@<TRIPOS>MOLECULE
ZINC000015179664
 44 45 1 0 0
SMALL
USER_CHARGES


@<TRIPOS>ATOM
      1 C1        -14.2007   -5.0514   57.2821 C.3     1  ZINC000015179664   -0.1600
      2 C2        -12.9666   -4.5378   56.5375 C.3     1  ZINC000015179664    0.1800
      3 H3        -12.2725   -5.3618   56.3729 H       1  ZINC000015179664    0.1200
      4 C4        -12.2925   -3.4696   57.3595 C.ar    1  ZINC000015179664   -0.1000
      5 C5        -12.8367   -2.2007   57.4239 C.ar    1  ZINC000015179664   -0.0700
      6 C6        -12.2182   -1.2208   58.1780 C.ar    1  ZINC000015179664   -0.1200
      7 C7        -11.0559   -1.5101   58.8678 C.ar    1  ZINC000015179664   -0.0500
      8 C8        -10.5122   -2.7796   58.8042 C.ar    1  ZINC000015179664   -0.0400
      9 N9         -9.2672   -3.0894   59.5425 N.pl3   1  ZINC000015179664    0.0300
     10 O10        -8.7219   -2.2259   60.2062 O.2     1  ZINC000015179664   -0.1600
     11 O11        -8.7882   -4.2079   59.4864 O.2     1  ZINC000015179664   -0.1500
     12 C12       -11.1328   -3.7605   58.0537 C.ar    1  ZINC000015179664   -0.0400
     13 N13       -13.3736   -3.9767   55.2468 N.am    1  ZINC000015179664   -0.6100
     14 C14       -14.7917   -3.7401   54.9653 C.3     1  ZINC000015179664    0.0600
     15 C15       -12.4433   -3.6780   54.3185 C.2     1  ZINC000015179664    0.5200
     16 O16       -11.2691   -3.8725   54.5522 O.2     1  ZINC000015179664   -0.5200
     17 C17       -12.8619   -3.1025   52.9901 C.3     1  ZINC000015179664   -0.1500
     18 C18       -11.6196   -2.8136   52.1452 C.3     1  ZINC000015179664    0.1300
     19 N19       -11.1327   -1.4634   52.4383 N.am    1  ZINC000015179664   -0.7300
     20 C20        -9.8149   -1.1912   52.3635 C.2     1  ZINC000015179664    0.5800
     21 O21        -9.0295   -2.0670   52.0541 O.2     1  ZINC000015179664   -0.5300
     22 C22        -9.3259    0.1659   52.6563 C.2     1  ZINC000015179664   -0.1500
     23 C23       -10.1300    1.1774   53.0809 C.2     1  ZINC000015179664   -0.2200
     24 S24        -9.2311    2.6054   53.3217 S.3     1  ZINC000015179664    0.1900
     25 C25        -7.7310    1.8316   52.8409 C.2     1  ZINC000015179664   -0.2300
     26 C26        -7.9419    0.5586   52.5282 C.2     1  ZINC000015179664   -0.0900
     27 H27       -13.8979   -5.4689   58.2424 H       1  ZINC000015179664    0.0800
     28 H28       -14.8948   -4.2273   57.4468 H       1  ZINC000015179664    0.0600
     29 H29       -14.6883   -5.8240   56.6876 H       1  ZINC000015179664    0.0700
     30 H30       -13.7448   -1.9746   56.8849 H       1  ZINC000015179664    0.1500
     31 H31       -12.6430   -0.2291   58.2277 H       1  ZINC000015179664    0.1500
     32 H32       -10.5725   -0.7445   59.4563 H       1  ZINC000015179664    0.1600
     33 H33       -10.7081   -4.7522   58.0039 H       1  ZINC000015179664    0.1600
     34 H34       -15.0721   -2.7486   55.3203 H       1  ZINC000015179664    0.0600
     35 H35       -14.9642   -3.8036   53.8908 H       1  ZINC000015179664    0.0800
     36 H36       -15.3937   -4.4924   55.4750 H       1  ZINC000015179664    0.0800
     37 H37       -13.4978   -3.8178   52.4685 H       1  ZINC000015179664    0.1000
     38 H38       -13.4139   -2.1770   53.1529 H       1  ZINC000015179664    0.1000
     39 H39       -10.8420   -3.5398   52.3823 H       1  ZINC000015179664    0.0800
     40 H40       -11.8743   -2.8864   51.0879 H       1  ZINC000015179664    0.0800
     41 H41       -11.7589   -0.7652   52.6861 H       1  ZINC000015179664    0.4000
     42 H42       -11.1940    1.0878   53.2433 H       1  ZINC000015179664    0.1700
     43 H43        -6.7692    2.3218   52.8079 H       1  ZINC000015179664    0.1700
     44 H44        -7.1602   -0.1123   52.2039 H       1  ZINC000015179664    0.1600
@<TRIPOS>BOND
     1     1     2    1
     2     1    27    1
     3     1    28    1
     4     1    29    1
     5     2     3    1
     6     2     4    1
     7     2    13    1
     8     4    12   ar
     9     4     5   ar
    10     5     6   ar
    11     5    30    1
    12     6     7   ar
    13     6    31    1
    14     7     8   ar
    15     7    32    1
    16     8     9    1
    17     8    12   ar
    18     9    10    2
    19     9    11    2
    20    12    33    1
    21    13    14    1
    22    13    15   am
    23    14    34    1
    24    14    35    1
    25    14    36    1
    26    15    16    2
    27    15    17    1
    28    17    18    1
    29    17    37    1
    30    17    38    1
    31    18    19    1
    32    18    39    1
    33    18    40    1
    34    19    20   am
    35    19    41    1
    36    20    21    2
    37    20    22    1
    38    22    26    1
    39    22    23    2
    40    23    24    1
    41    23    42    1
    42    24    25    1
    43    25    26    2
    44    25    43    1
    45    26    44    1
@<TRIPOS>SUBSTRUCTURE
     1 ZINC000015179664        1 TEMP              0 ****  ****    0 ROOT


##########                                Name:    ZINC000274267583
##########                DOCK_Rotatable_Bonds:                   5
##########                         Heavy_Atoms:                  24
##########                    Molecular_Weight:             349.407
##########                DOCK_Rotatable_Bonds:                   5
##########                       Formal_Charge:           0.0300001
##########                     HBond_Acceptors:                   7
##########                        HBond_Donors:                   1
##########                         Heavy_Atoms:                  24
##########                          Grid_Score:          -33.861130
##########                     Grid_vdw_energy:          -31.870499
##########                      Grid_es_energy:           -1.990629
##########           Internal_energy_repulsive:           16.171621

@<TRIPOS>MOLECULE
ZINC000274267583
 43 45 1 0 0
SMALL
USER_CHARGES


@<TRIPOS>ATOM
      1 C1         -9.7118    2.5450   65.1951 C.3     1  ZINC000274267583    0.0200
      2 O2         -9.1664    1.2253   65.1401 O.3     1  ZINC000274267583   -0.3100
      3 C3         -9.1913    0.5972   63.9351 C.ar    1  ZINC000274267583    0.1900
      4 C4         -8.7286   -0.7057   63.8210 C.ar    1  ZINC000274267583   -0.2300
      5 C5         -8.7554   -1.3420   62.5951 C.ar    1  ZINC000274267583    0.0300
      6 C6         -9.2424   -0.6813   61.4824 C.ar    1  ZINC000274267583   -0.7200
      7 S7         -9.2746   -1.4955   59.9202 S.o2    1  ZINC000274267583    2.7000
      8 O8         -8.5897   -0.6455   59.0104 O.2     1  ZINC000274267583   -0.9500
      9 O9         -8.8937   -2.8430   60.1620 O.2     1  ZINC000274267583   -0.9500
     10 N10       -10.8533   -1.5381   59.4221 N.am    1  ZINC000274267583   -1.1100
     11 C11       -11.8607   -2.2211   60.2377 C.3     1  ZINC000274267583    0.2100
     12 H12       -11.3742   -2.9697   60.8629 H       1  ZINC000274267583    0.1000
     13 C13       -12.5734   -1.1997   61.1273 C.3     1  ZINC000274267583   -0.1800
     14 C14       -13.8049   -1.8745   61.7448 C.3     1  ZINC000274267583    0.0600
     15 O15       -14.7130   -2.2036   60.6927 O.3     1  ZINC000274267583   -0.3100
     16 C16       -14.2189   -2.8590   59.6091 C.ar    1  ZINC000274267583    0.1100
     17 C17       -15.1126   -3.5046   58.7612 C.ar    1  ZINC000274267583   -0.1100
     18 C18       -14.6531   -4.1774   57.6475 C.ar    1  ZINC000274267583   -0.1600
     19 C19       -13.2945   -4.2104   57.3715 C.ar    1  ZINC000274267583    0.0900
     20 O20       -12.8382   -4.8700   56.2734 O.3     1  ZINC000274267583   -0.3200
     21 C21       -13.8179   -5.3409   55.3457 C.3     1  ZINC000274267583    0.0300
     22 C22       -12.4028   -3.5695   58.2167 C.ar    1  ZINC000274267583   -0.1000
     23 C23       -12.8633   -2.8954   59.3358 C.ar    1  ZINC000274267583   -0.1400
     24 C24        -9.7044    0.6171   61.5936 C.ar    1  ZINC000274267583    0.0200
     25 C25        -9.6846    1.2561   62.8183 C.ar    1  ZINC000274267583   -0.1700
     26 H26        -9.1609    3.1945   64.5148 H       1  ZINC000274267583    0.0600
     27 H27       -10.7610    2.5171   64.9009 H       1  ZINC000274267583    0.0600
     28 H28        -9.6296    2.9300   66.2115 H       1  ZINC000274267583    0.1100
     29 H29        -8.3475   -1.2219   64.6897 H       1  ZINC000274267583    0.1400
     30 H30        -8.3954   -2.3563   62.5058 H       1  ZINC000274267583    0.1400
     31 H31       -11.1112   -1.1110   58.5902 H       1  ZINC000274267583    0.4200
     32 H32       -11.9006   -0.8686   61.9184 H       1  ZINC000274267583    0.1000
     33 H33       -12.8851   -0.3444   60.5278 H       1  ZINC000274267583    0.0900
     34 H34       -13.5030   -2.7827   62.2665 H       1  ZINC000274267583    0.0700
     35 H35       -14.2858   -1.1911   62.4446 H       1  ZINC000274267583    0.1200
     36 H36       -16.1708   -3.4793   58.9755 H       1  ZINC000274267583    0.1400
     37 H37       -15.3505   -4.6779   56.9921 H       1  ZINC000274267583    0.1400
     38 H38       -14.4889   -6.0377   55.8482 H       1  ZINC000274267583    0.0600
     39 H39       -14.3912   -4.4965   54.9630 H       1  ZINC000274267583    0.0600
     40 H40       -13.3210   -5.8476   54.5184 H       1  ZINC000274267583    0.1000
     41 H41       -11.3448   -3.5955   58.0018 H       1  ZINC000274267583    0.1300
     42 H42       -10.0846    1.1310   60.7231 H       1  ZINC000274267583    0.1500
     43 H43       -10.0457    2.2702   62.9047 H       1  ZINC000274267583    0.1400
@<TRIPOS>BOND
     1     1     2    1
     2     1    26    1
     3     1    27    1
     4     1    28    1
     5     2     3    1
     6     3    25   ar
     7     3     4   ar
     8     4     5   ar
     9     4    29    1
    10     5     6   ar
    11     5    30    1
    12     6     7    1
    13     6    24   ar
    14     7     8    2
    15     7     9    2
    16     7    10   am
    17    10    11    1
    18    10    31    1
    19    11    12    1
    20    11    23    1
    21    11    13    1
    22    13    14    1
    23    13    32    1
    24    13    33    1
    25    14    15    1
    26    14    34    1
    27    14    35    1
    28    15    16    1
    29    16    23   ar
    30    16    17   ar
    31    17    18   ar
    32    17    36    1
    33    18    19   ar
    34    18    37    1
    35    19    20    1
    36    19    22   ar
    37    20    21    1
    38    21    38    1
    39    21    39    1
    40    21    40    1
    41    22    23   ar
    42    22    41    1
    43    24    25   ar
    44    24    42    1
    45    25    43    1
@<TRIPOS>SUBSTRUCTURE
     1 ZINC000274267583        1 TEMP              0 ****  ****    0 ROOT


##########                                Name:    ZINC000004313955
##########                DOCK_Rotatable_Bonds:                   6
##########                         Heavy_Atoms:                  26
##########                    Molecular_Weight:             414.358
##########                DOCK_Rotatable_Bonds:                   6
##########                       Formal_Charge:           0.0299997
##########                     HBond_Acceptors:                   9
##########                        HBond_Donors:                   2
##########                         Heavy_Atoms:                  26
##########                          Grid_Score:          -33.836109
##########                     Grid_vdw_energy:          -33.089684
##########                      Grid_es_energy:           -0.746424
##########           Internal_energy_repulsive:           13.106070

@<TRIPOS>MOLECULE
ZINC000004313955
 47 49 1 0 0
SMALL
USER_CHARGES


@<TRIPOS>ATOM
      1 C1        -14.9909   -1.1310   49.0747 C.3     1  ZINC000004313955   -0.1500
      2 C2        -14.6875   -1.5131   50.5249 C.3     1  ZINC000004313955   -0.1100
      3 H3        -14.9339   -2.5629   50.6837 H       1  ZINC000004313955    0.0800
      4 C4        -15.5231   -0.6440   51.4676 C.3     1  ZINC000004313955   -0.1100
      5 C5        -15.2449   -1.0477   52.9173 C.3     1  ZINC000004313955   -0.1100
      6 H6        -15.8578   -0.4443   53.5870 H       1  ZINC000004313955    0.0900
      7 C7        -15.5837   -2.5274   53.1093 C.3     1  ZINC000004313955   -0.1500
      8 C8        -13.7637   -0.8165   53.2323 C.3     1  ZINC000004313955    0.1200
      9 N9        -12.9516   -1.5337   52.2397 N.am    1  ZINC000004313955   -0.6000
     10 C10       -11.9975   -2.4015   52.6308 C.2     1  ZINC000004313955    0.5400
     11 O11       -11.3349   -2.9884   51.8017 O.2     1  ZINC000004313955   -0.5300
     12 C12       -11.7541   -2.6427   54.0983 C.3     1  ZINC000004313955   -0.1400
     13 S13       -10.8330   -1.2485   54.7941 S.3     1  ZINC000004313955    0.0800
     14 C14       -10.8565   -1.6875   56.5004 C.2     1  ZINC000004313955    0.1100
     15 N15       -11.4472   -2.7365   57.0275 N.2     1  ZINC000004313955   -0.2800
     16 N16       -11.2655   -2.7526   58.2996 N.2     1  ZINC000004313955   -0.2400
     17 C17       -10.5477   -1.7153   58.6630 C.2     1  ZINC000004313955    0.2500
     18 C18       -10.1246   -1.3782   60.0387 C.ar    1  ZINC000004313955   -0.0100
     19 C19       -10.6620   -0.2634   60.6836 C.ar    1  ZINC000004313955   -0.0700
     20 C20       -10.2633    0.0463   61.9674 C.ar    1  ZINC000004313955   -0.1100
     21 C21        -9.3315   -0.7458   62.6167 C.ar    1  ZINC000004313955   -0.0100
     22 Cl22       -8.8350   -0.3485   64.2320 Cl      1  ZINC000004313955   -0.0500
     23 C23        -8.7944   -1.8538   61.9832 C.ar    1  ZINC000004313955   -0.1100
     24 C24        -9.1894   -2.1776   60.7007 C.ar    1  ZINC000004313955    0.0100
     25 Cl25       -8.5154   -3.5668   59.9073 Cl      1  ZINC000004313955   -0.0100
     26 N26       -10.2590   -1.0041   57.5212 N.pl3   1  ZINC000004313955   -0.3000
     27 N27        -9.5331    0.1493   57.4287 N.3     1  ZINC000004313955   -0.5800
     28 C28       -13.1998   -1.2879   50.8125 C.3     1  ZINC000004313955    0.1100
     29 H29       -14.3946   -1.7494   48.4037 H       1  ZINC000004313955    0.0600
     30 H30       -16.0497   -1.2902   48.8709 H       1  ZINC000004313955    0.0600
     31 H31       -14.7443   -0.0811   48.9164 H       1  ZINC000004313955    0.0600
     32 H32       -15.2589    0.4039   51.3253 H       1  ZINC000004313955    0.0700
     33 H33       -16.5816   -0.7843   51.2482 H       1  ZINC000004313955    0.0700
     34 H34       -14.9698   -3.1304   52.4402 H       1  ZINC000004313955    0.0600
     35 H35       -15.3854   -2.8144   54.1419 H       1  ZINC000004313955    0.0600
     36 H36       -16.6372   -2.6913   52.8825 H       1  ZINC000004313955    0.0600
     37 H37       -13.5420    0.2496   53.1843 H       1  ZINC000004313955    0.0700
     38 H38       -13.5390   -1.1941   54.2298 H       1  ZINC000004313955    0.1000
     39 H39       -12.7096   -2.7404   54.6138 H       1  ZINC000004313955    0.1300
     40 H40       -11.1774   -3.5588   54.2252 H       1  ZINC000004313955    0.1300
     41 H41       -11.3884    0.3559   60.1784 H       1  ZINC000004313955    0.1600
     42 H42       -10.6788    0.9090   62.4672 H       1  ZINC000004313955    0.1500
     43 H43        -8.0681   -2.4678   62.4946 H       1  ZINC000004313955    0.1500
     44 H44        -8.7477    0.1340   58.0620 H       1  ZINC000004313955    0.3700
     45 H45        -9.2294    0.3103   56.4800 H       1  ZINC000004313955    0.3800
     46 H46       -12.6028   -1.9761   50.2141 H       1  ZINC000004313955    0.0900
     47 H47       -12.9323   -0.2603   50.5667 H       1  ZINC000004313955    0.0800
@<TRIPOS>BOND
     1     1     2    1
     2     1    29    1
     3     1    30    1
     4     1    31    1
     5     2     3    1
     6     2    28    1
     7     2     4    1
     8     4     5    1
     9     4    32    1
    10     4    33    1
    11     5     6    1
    12     5     7    1
    13     5     8    1
    14     7    34    1
    15     7    35    1
    16     7    36    1
    17     8     9    1
    18     8    37    1
    19     8    38    1
    20     9    10   am
    21     9    28    1
    22    10    11    2
    23    10    12    1
    24    12    13    1
    25    12    39    1
    26    12    40    1
    27    13    14    1
    28    14    26    1
    29    14    15    2
    30    15    16    1
    31    16    17    2
    32    17    18    1
    33    17    26    1
    34    18    24   ar
    35    18    19   ar
    36    19    20   ar
    37    19    41    1
    38    20    21   ar
    39    20    42    1
    40    21    22    1
    41    21    23   ar
    42    23    24   ar
    43    23    43    1
    44    24    25    1
    45    26    27    1
    46    27    44    1
    47    27    45    1
    48    28    46    1
    49    28    47    1
@<TRIPOS>SUBSTRUCTURE
     1 ZINC000004313955        1 TEMP              0 ****  ****    0 ROOT


##########                                Name:    ZINC001085817863
##########                DOCK_Rotatable_Bonds:                   7
##########                         Heavy_Atoms:                  24
##########                    Molecular_Weight:             326.442
##########                DOCK_Rotatable_Bonds:                   7
##########                       Formal_Charge:           0.0299998
##########                     HBond_Acceptors:                   5
##########                        HBond_Donors:                   0
##########                         Heavy_Atoms:                  24
##########                          Grid_Score:          -33.828167
##########                     Grid_vdw_energy:          -33.252819
##########                      Grid_es_energy:           -0.575349
##########           Internal_energy_repulsive:           17.674524

@<TRIPOS>MOLECULE
ZINC001085817863
 50 52 1 0 0
SMALL
USER_CHARGES


@<TRIPOS>ATOM
      1 C1        -13.5015   -1.5800   59.6893 C.3     1  ZINC001085817863   -0.1400
      2 C2        -12.6614   -1.5530   58.4109 C.3     1  ZINC001085817863   -0.0700
      3 C3        -11.5010   -2.5041   58.5521 C.2     1  ZINC001085817863    0.1100
      4 C4        -11.4295   -3.7631   58.0227 C.2     1  ZINC001085817863   -0.2400
      5 C5        -12.4559   -4.4432   57.2149 C.2     1  ZINC001085817863    0.6000
      6 O6        -13.3441   -5.0689   57.7616 O.2     1  ZINC001085817863   -0.5300
      7 N7        -12.4112   -4.3721   55.8697 N.am    1  ZINC001085817863   -0.6100
      8 C8        -13.4323   -5.0486   55.0661 C.3     1  ZINC001085817863    0.0800
      9 C9        -11.3415   -3.6183   55.2112 C.3     1  ZINC001085817863    0.1300
     10 C10       -11.9095   -2.8826   53.9959 C.3     1  ZINC001085817863    0.0100
     11 H11       -12.1325   -3.5515   53.1646 H       1  ZINC001085817863    0.0800
     12 C12       -13.0633   -1.9308   54.3414 C.3     1  ZINC001085817863   -0.1400
     13 C13       -12.3952   -1.0204   53.3015 C.3     1  ZINC001085817863    0.0000
     14 N14       -11.1203   -1.7002   53.6031 N.3     1  ZINC001085817863   -0.4400
     15 C15       -10.3579   -1.9587   52.3744 C.3     1  ZINC001085817863    0.0700
     16 C16        -9.2648   -0.9306   52.2358 C.ar    1  ZINC001085817863   -0.1300
     17 C17        -9.5021    0.3950   52.5649 C.ar    1  ZINC001085817863   -0.0700
     18 C18        -8.4665    1.3061   52.4220 C.ar    1  ZINC001085817863   -0.1700
     19 C19        -7.2411    0.8656   51.9598 C.ar    1  ZINC001085817863    0.1000
     20 N20        -7.0512   -0.4037   51.6561 N.ar    1  ZINC001085817863   -0.4800
     21 C21        -8.0112   -1.2985   51.7845 C.ar    1  ZINC001085817863    0.1200
     22 C22       -10.1235   -4.2988   58.4214 C.2     1  ZINC001085817863   -0.1900
     23 C23        -9.5249   -3.3365   59.1455 C.2     1  ZINC001085817863   -0.0200
     24 N24       -10.3560   -2.2566   59.2162 N.pl3   1  ZINC001085817863   -0.4400
     25 C25       -10.0504   -1.0099   59.9223 C.3     1  ZINC001085817863    0.0600
     26 H26       -14.3408   -0.8920   59.5873 H       1  ZINC001085817863    0.0600
     27 H27       -13.8773   -2.5894   59.8559 H       1  ZINC001085817863    0.0500
     28 H28       -12.8848   -1.2777   60.5358 H       1  ZINC001085817863    0.0600
     29 H29       -13.2780   -1.8552   57.5645 H       1  ZINC001085817863    0.0600
     30 H30       -12.2856   -0.5434   58.2445 H       1  ZINC001085817863    0.1100
     31 H31       -14.4177   -4.6694   55.3366 H       1  ZINC001085817863    0.0700
     32 H32       -13.2474   -4.8587   54.0089 H       1  ZINC001085817863    0.0700
     33 H33       -13.3916   -6.1214   55.2551 H       1  ZINC001085817863    0.0600
     34 H34       -10.9229   -2.8950   55.9109 H       1  ZINC001085817863    0.0800
     35 H35       -10.5593   -4.3050   54.8872 H       1  ZINC001085817863    0.1000
     36 H36       -14.0471   -2.2969   54.0477 H       1  ZINC001085817863    0.0800
     37 H37       -13.0322   -1.5431   55.3597 H       1  ZINC001085817863    0.1000
     38 H38       -12.7474   -1.1916   52.2843 H       1  ZINC001085817863    0.0700
     39 H39       -12.4021    0.0337   53.5789 H       1  ZINC001085817863    0.0800
     40 H40        -9.9165   -2.9541   52.4233 H       1  ZINC001085817863    0.0900
     41 H41       -11.0243   -1.8986   51.5139 H       1  ZINC001085817863    0.0500
     42 H42       -10.4706    0.7107   52.9237 H       1  ZINC001085817863    0.1300
     43 H43        -8.6159    2.3469   52.6687 H       1  ZINC001085817863    0.1300
     44 H44        -6.4295    1.5689   51.8453 H       1  ZINC001085817863    0.1600
     45 H45        -7.8182   -2.3291   51.5258 H       1  ZINC001085817863    0.1500
     46 H46        -9.7224   -5.2725   58.1814 H       1  ZINC001085817863    0.1600
     47 H47        -8.5451   -3.4055   59.5942 H       1  ZINC001085817863    0.1600
     48 H48        -9.5517   -0.3197   59.2417 H       1  ZINC001085817863    0.0800
     49 H49       -10.9757   -0.5600   60.2822 H       1  ZINC001085817863    0.0900
     50 H50        -9.3965   -1.2222   60.7680 H       1  ZINC001085817863    0.0900
@<TRIPOS>BOND
     1     1     2    1
     2     1    26    1
     3     1    27    1
     4     1    28    1
     5     2     3    1
     6     2    29    1
     7     2    30    1
     8     3    24    1
     9     3     4    2
    10     4     5    1
    11     4    22    1
    12     5     6    2
    13     5     7   am
    14     7     8    1
    15     7     9    1
    16     8    31    1
    17     8    32    1
    18     8    33    1
    19     9    10    1
    20     9    34    1
    21     9    35    1
    22    10    11    1
    23    10    14    1
    24    10    12    1
    25    12    13    1
    26    12    36    1
    27    12    37    1
    28    13    14    1
    29    13    38    1
    30    13    39    1
    31    14    15    1
    32    15    16    1
    33    15    40    1
    34    15    41    1
    35    16    21   ar
    36    16    17   ar
    37    17    18   ar
    38    17    42    1
    39    18    19   ar
    40    18    43    1
    41    19    20   ar
    42    19    44    1
    43    20    21   ar
    44    21    45    1
    45    22    23    2
    46    22    46    1
    47    23    24    1
    48    23    47    1
    49    24    25    1
    50    25    48    1
    51    25    49    1
    52    25    50    1
@<TRIPOS>SUBSTRUCTURE
     1 ZINC001085817863        1 TEMP              0 ****  ****    0 ROOT


##########                                Name:    ZINC000329637067
##########                DOCK_Rotatable_Bonds:                   5
##########                         Heavy_Atoms:                  26
##########                    Molecular_Weight:             362.429
##########                DOCK_Rotatable_Bonds:                   5
##########                       Formal_Charge:           0.0199998
##########                     HBond_Acceptors:                   8
##########                        HBond_Donors:                   0
##########                         Heavy_Atoms:                  26
##########                          Grid_Score:          -33.816662
##########                     Grid_vdw_energy:          -32.878372
##########                      Grid_es_energy:           -0.938289
##########           Internal_energy_repulsive:           29.066032

@<TRIPOS>MOLECULE
ZINC000329637067
 52 54 1 0 0
SMALL
USER_CHARGES


@<TRIPOS>ATOM
      1 C1        -11.1941    1.0615   59.3395 C.3     1  ZINC000329637067   -0.1300
      2 C2        -10.5026    0.2495   60.4043 C.2     1  ZINC000329637067    0.2200
      3 C3        -10.0502    0.8462   61.5399 C.2     1  ZINC000329637067   -0.2900
      4 C4         -9.4127    0.0666   62.5095 C.2     1  ZINC000329637067    0.2800
      5 C5         -8.9029    0.7042   63.7762 C.3     1  ZINC000329637067   -0.1200
      6 N6         -9.2589   -1.2272   62.3132 N.2     1  ZINC000329637067   -0.5500
      7 C7         -9.7052   -1.8074   61.1964 C.2     1  ZINC000329637067    0.6400
      8 O8         -9.5504   -3.0068   61.0391 O.2     1  ZINC000329637067   -0.5300
      9 N9        -10.3286   -1.0885   60.2442 N.am    1  ZINC000329637067   -0.5000
     10 C10       -10.8098   -1.7479   59.0278 C.3     1  ZINC000329637067    0.0700
     11 C11       -12.1529   -2.3770   59.2951 C.2     1  ZINC000329637067    0.5100
     12 O12       -12.7268   -2.1598   60.3413 O.2     1  ZINC000329637067   -0.5200
     13 N13       -12.7164   -3.1808   58.3716 N.am    1  ZINC000329637067   -0.6100
     14 C14       -14.0252   -3.8013   58.6178 C.3     1  ZINC000329637067    0.1000
     15 C15       -14.9570   -3.4676   57.4486 C.3     1  ZINC000329637067   -0.1400
     16 C16       -14.2956   -3.8951   56.1364 C.3     1  ZINC000329637067   -0.1000
     17 C17       -12.9877   -3.1233   55.9473 C.3     1  ZINC000329637067   -0.1200
     18 H18       -13.1944   -2.0531   55.9411 H       1  ZINC000329637067    0.1000
     19 C19       -12.3539   -3.5206   54.6390 C.2     1  ZINC000329637067    0.5300
     20 O20       -12.6286   -4.5871   54.1313 O.2     1  ZINC000329637067   -0.5300
     21 N21       -11.4816   -2.6906   54.0333 N.am    1  ZINC000329637067   -0.6200
     22 C22       -10.8548   -3.0541   52.7525 C.3     1  ZINC000329637067    0.0800
     23 C23       -11.0354   -1.8855   51.7770 C.3     1  ZINC000329637067    0.0500
     24 O24       -10.5699   -0.6821   52.3929 O.3     1  ZINC000329637067   -0.3800
     25 C25       -11.2957   -0.3063   53.5658 C.3     1  ZINC000329637067    0.0500
     26 C26       -11.1327   -1.3916   54.6301 C.3     1  ZINC000329637067    0.0700
     27 C27       -12.0364   -3.4483   57.0970 C.3     1  ZINC000329637067    0.1200
     28 H28       -12.1766    0.6347   59.1378 H       1  ZINC000329637067    0.0900
     29 H29       -11.3081    2.0895   59.6833 H       1  ZINC000329637067    0.1000
     30 H30       -10.5977    1.0474   58.4273 H       1  ZINC000329637067    0.0900
     31 H31       -10.1813    1.9077   61.6901 H       1  ZINC000329637067    0.1600
     32 H32        -9.6854    0.6812   64.5348 H       1  ZINC000329637067    0.1000
     33 H33        -8.0327    0.1545   64.1351 H       1  ZINC000329637067    0.0900
     34 H34        -8.6221    1.7380   63.5751 H       1  ZINC000329637067    0.0900
     35 H35       -10.9057   -1.0122   58.2293 H       1  ZINC000329637067    0.1200
     36 H36       -10.1005   -2.5193   58.7279 H       1  ZINC000329637067    0.1300
     37 H37       -13.9084   -4.8823   58.6949 H       1  ZINC000329637067    0.0800
     38 H38       -14.4466   -3.4104   59.5440 H       1  ZINC000329637067    0.0900
     39 H39       -15.8999   -4.0004   57.5713 H       1  ZINC000329637067    0.0900
     40 H40       -15.1452   -2.3942   57.4284 H       1  ZINC000329637067    0.0700
     41 H41       -14.0852   -4.9641   56.1672 H       1  ZINC000329637067    0.0800
     42 H42       -14.9670   -3.6811   55.3048 H       1  ZINC000329637067    0.0800
     43 H43        -9.7924   -3.2444   52.9047 H       1  ZINC000329637067    0.0800
     44 H44       -11.3340   -3.9462   52.3494 H       1  ZINC000329637067    0.1000
     45 H45       -10.4612   -2.0760   50.8703 H       1  ZINC000329637067    0.1100
     46 H46       -12.0908   -1.7809   51.5254 H       1  ZINC000329637067    0.0600
     47 H47       -10.9088    0.6391   53.9460 H       1  ZINC000329637067    0.1100
     48 H48       -12.3519   -0.1961   53.3207 H       1  ZINC000329637067    0.0600
     49 H49       -11.7937   -1.1831   55.4713 H       1  ZINC000329637067    0.1000
     50 H50       -10.0983   -1.4173   54.9729 H       1  ZINC000329637067    0.0800
     51 H51       -11.1442   -2.8268   57.0198 H       1  ZINC000329637067    0.1000
     52 H52       -11.7560   -4.5007   57.0529 H       1  ZINC000329637067    0.0800
@<TRIPOS>BOND
     1     1     2    1
     2     1    28    1
     3     1    29    1
     4     1    30    1
     5     2     9    1
     6     2     3    2
     7     3     4    1
     8     3    31    1
     9     4     5    1
    10     4     6    2
    11     5    32    1
    12     5    33    1
    13     5    34    1
    14     6     7    1
    15     7     8    2
    16     7     9   am
    17     9    10    1
    18    10    11    1
    19    10    35    1
    20    10    36    1
    21    11    12    2
    22    11    13   am
    23    13    27    1
    24    13    14    1
    25    14    15    1
    26    14    37    1
    27    14    38    1
    28    15    16    1
    29    15    39    1
    30    15    40    1
    31    16    17    1
    32    16    41    1
    33    16    42    1
    34    17    18    1
    35    17    19    1
    36    17    27    1
    37    19    20    2
    38    19    21   am
    39    21    26    1
    40    21    22    1
    41    22    23    1
    42    22    43    1
    43    22    44    1
    44    23    24    1
    45    23    45    1
    46    23    46    1
    47    24    25    1
    48    25    26    1
    49    25    47    1
    50    25    48    1
    51    26    49    1
    52    26    50    1
    53    27    51    1
    54    27    52    1
@<TRIPOS>SUBSTRUCTURE
     1 ZINC000329637067        1 TEMP              0 ****  ****    0 ROOT


##########                                Name:    ZINC000523878927
##########                DOCK_Rotatable_Bonds:                   8
##########                         Heavy_Atoms:                  27
##########                    Molecular_Weight:             376.474
##########                DOCK_Rotatable_Bonds:                   8
##########                       Formal_Charge:          0.00999957
##########                     HBond_Acceptors:                   7
##########                        HBond_Donors:                   3
##########                         Heavy_Atoms:                  27
##########                          Grid_Score:          -33.783550
##########                     Grid_vdw_energy:          -31.930300
##########                      Grid_es_energy:           -1.853252
##########           Internal_energy_repulsive:            9.599959

@<TRIPOS>MOLECULE
ZINC000523878927
 56 58 1 0 0
SMALL
USER_CHARGES


@<TRIPOS>ATOM
      1 C1        -11.8380   -0.2352   53.7155 C.3     1  ZINC000523878927   -0.1500
      2 C2        -11.1550   -1.5439   53.3133 C.3     1  ZINC000523878927   -0.0900
      3 H3        -10.0992   -1.3574   53.1172 H       1  ZINC000523878927    0.0700
      4 C4        -11.8181   -2.0979   52.0506 C.3     1  ZINC000523878927   -0.1200
      5 C5        -13.3002   -2.3597   52.3258 C.3     1  ZINC000523878927   -0.1200
      6 C6        -13.4363   -3.3761   53.4614 C.3     1  ZINC000523878927   -0.1100
      7 C7        -12.7733   -2.8220   54.7240 C.3     1  ZINC000523878927   -0.1000
      8 H8        -13.2598   -1.8898   55.0106 H       1  ZINC000523878927    0.0800
      9 C9        -12.9093   -3.8384   55.8594 C.3     1  ZINC000523878927    0.1400
     10 N10       -12.3427   -3.2768   57.0882 N.am    1  ZINC000523878927   -0.7400
     11 C11       -11.2702   -3.8570   57.6623 C.2     1  ZINC000523878927    0.7200
     12 O12       -10.7738   -4.8473   57.1612 O.2     1  ZINC000523878927   -0.5800
     13 N13       -10.7481   -3.3393   58.7918 N.am    1  ZINC000523878927   -0.6400
     14 C14        -9.5824   -3.8703   59.5217 C.3     1  ZINC000523878927    0.1000
     15 C15        -9.0212   -2.6592   60.3076 C.3     1  ZINC000523878927   -0.1400
     16 C16       -10.3240   -1.9220   60.7158 C.3     1  ZINC000523878927    0.1500
     17 H17       -10.7529   -2.3659   61.6142 H       1  ZINC000523878927    0.1100
     18 N18       -10.0699   -0.4932   60.9166 N.am    1  ZINC000523878927   -0.7300
     19 C19        -9.8260   -0.0195   62.1546 C.2     1  ZINC000523878927    0.7100
     20 O20        -9.8153   -0.7783   63.1047 O.2     1  ZINC000523878927   -0.5700
     21 N21        -9.5938    1.2951   62.3395 N.am    1  ZINC000523878927   -0.6800
     22 C22        -9.3404    1.7873   63.6261 C.ar    1  ZINC000523878927    0.1500
     23 C23        -8.2736    1.2904   64.3628 C.ar    1  ZINC000523878927   -0.1200
     24 C24        -8.0251    1.7774   65.6311 C.ar    1  ZINC000523878927   -0.1300
     25 C25        -8.8393    2.7602   66.1682 C.ar    1  ZINC000523878927    0.0800
     26 F26        -8.5949    3.2349   67.4092 F       1  ZINC000523878927   -0.1400
     27 C27        -9.9034    3.2573   65.4349 C.ar    1  ZINC000523878927   -0.1300
     28 C28       -10.1522    2.7768   64.1642 C.ar    1  ZINC000523878927   -0.0900
     29 C29       -11.2429   -2.1478   59.4968 C.3     1  ZINC000523878927    0.1200
     30 C30       -11.2911   -2.5602   54.4488 C.3     1  ZINC000523878927   -0.1100
     31 H31       -11.3656    0.1596   54.6151 H       1  ZINC000523878927    0.0500
     32 H32       -11.7411    0.4888   52.9067 H       1  ZINC000523878927    0.0500
     33 H33       -12.8938   -0.4217   53.9116 H       1  ZINC000523878927    0.0600
     34 H34       -11.7212   -1.3739   51.2417 H       1  ZINC000523878927    0.0600
     35 H35       -11.3316   -3.0303   51.7640 H       1  ZINC000523878927    0.0600
     36 H36       -13.7867   -1.4275   52.6125 H       1  ZINC000523878927    0.0700
     37 H37       -13.7726   -2.7545   51.4263 H       1  ZINC000523878927    0.0600
     38 H38       -14.4922   -3.5626   53.6574 H       1  ZINC000523878927    0.0600
     39 H39       -12.9498   -4.3085   53.1747 H       1  ZINC000523878927    0.0600
     40 H40       -13.9630   -4.0682   56.0172 H       1  ZINC000523878927    0.0700
     41 H41       -12.3739   -4.7508   55.5964 H       1  ZINC000523878927    0.0700
     42 H42       -12.7395   -2.4874   57.4885 H       1  ZINC000523878927    0.3900
     43 H43        -9.8917   -4.6581   60.2086 H       1  ZINC000523878927    0.0800
     44 H44        -8.8364   -4.2473   58.8220 H       1  ZINC000523878927    0.0800
     45 H45        -8.4661   -2.9870   61.1865 H       1  ZINC000523878927    0.1000
     46 H46        -8.4012   -2.0314   59.6676 H       1  ZINC000523878927    0.0800
     47 H47       -10.0772    0.1119   60.1586 H       1  ZINC000523878927    0.4000
     48 H48        -9.6023    1.9004   61.5815 H       1  ZINC000523878927    0.4100
     49 H49        -7.6388    0.5233   63.9444 H       1  ZINC000523878927    0.1400
     50 H50        -7.1954    1.3911   66.2045 H       1  ZINC000523878927    0.1400
     51 H51       -10.5374    4.0240   65.8556 H       1  ZINC000523878927    0.1400
     52 H52       -10.9821    3.1651   63.5924 H       1  ZINC000523878927    0.1500
     53 H53       -11.2058   -1.2795   58.8388 H       1  ZINC000523878927    0.0700
     54 H54       -12.2662   -2.3190   59.8307 H       1  ZINC000523878927    0.0800
     55 H55       -10.8046   -3.4926   54.1621 H       1  ZINC000523878927    0.0700
     56 H56       -10.8187   -2.1655   55.3483 H       1  ZINC000523878927    0.0700
@<TRIPOS>BOND
     1     1     2    1
     2     1    31    1
     3     1    32    1
     4     1    33    1
     5     2     3    1
     6     2    30    1
     7     2     4    1
     8     4     5    1
     9     4    34    1
    10     4    35    1
    11     5     6    1
    12     5    36    1
    13     5    37    1
    14     6     7    1
    15     6    38    1
    16     6    39    1
    17     7     8    1
    18     7     9    1
    19     7    30    1
    20     9    10    1
    21     9    40    1
    22     9    41    1
    23    10    11   am
    24    10    42    1
    25    11    12    2
    26    11    13   am
    27    13    29    1
    28    13    14    1
    29    14    15    1
    30    14    43    1
    31    14    44    1
    32    15    16    1
    33    15    45    1
    34    15    46    1
    35    16    17    1
    36    16    18    1
    37    16    29    1
    38    18    19   am
    39    18    47    1
    40    19    20    2
    41    19    21   am
    42    21    22    1
    43    21    48    1
    44    22    28   ar
    45    22    23   ar
    46    23    24   ar
    47    23    49    1
    48    24    25   ar
    49    24    50    1
    50    25    26    1
    51    25    27   ar
    52    27    28   ar
    53    27    51    1
    54    28    52    1
    55    29    53    1
    56    29    54    1
    57    30    55    1
    58    30    56    1
@<TRIPOS>SUBSTRUCTURE
     1 ZINC000523878927        1 TEMP              0 ****  ****    0 ROOT


##########                                Name:    ZINC000992031068
##########                DOCK_Rotatable_Bonds:                   8
##########                         Heavy_Atoms:                  25
##########                    Molecular_Weight:             342.401
##########                DOCK_Rotatable_Bonds:                   8
##########                       Formal_Charge:           0.0199999
##########                     HBond_Acceptors:                   8
##########                        HBond_Donors:                   2
##########                         Heavy_Atoms:                  25
##########                          Grid_Score:          -33.780586
##########                     Grid_vdw_energy:          -33.411945
##########                      Grid_es_energy:           -0.368639
##########           Internal_energy_repulsive:            7.141825

@<TRIPOS>MOLECULE
ZINC000992031068
 47 49 1 0 0
SMALL
USER_CHARGES


@<TRIPOS>ATOM
      1 C1         -9.9355   -0.1159   62.2098 C.3     1  ZINC000992031068   -0.1100
      2 C2         -9.8590   -1.2848   61.2616 C.ar    1  ZINC000992031068    0.1800
      3 C3        -10.8291   -1.4625   60.2855 C.ar    1  ZINC000992031068   -0.1700
      4 C4        -10.7139   -2.5599   59.4315 C.ar    1  ZINC000992031068    0.1300
      5 C5        -11.7228   -2.7984   58.3689 C.2     1  ZINC000992031068    0.5700
      6 O6        -12.5547   -1.9491   58.1197 O.2     1  ZINC000992031068   -0.5200
      7 N7        -11.7157   -3.9572   57.6808 N.am    1  ZINC000992031068   -0.7100
      8 C8        -12.7102   -4.1919   56.6310 C.3     1  ZINC000992031068    0.1300
      9 C9        -12.0929   -3.8835   55.2655 C.3     1  ZINC000992031068   -0.1200
     10 C10       -12.9095   -4.4303   54.0826 C.3     1  ZINC000992031068   -0.1400
     11 C11       -12.5861   -3.1155   53.3535 C.3     1  ZINC000992031068    0.1200
     12 N12       -13.7123   -2.5776   52.5863 N.am    1  ZINC000992031068   -0.7200
     13 C13       -13.6348   -1.3428   52.0516 C.2     1  ZINC000992031068    0.5200
     14 O14       -12.6323   -0.6777   52.2042 O.2     1  ZINC000992031068   -0.5200
     15 C15       -14.7941   -0.7888   51.2640 C.3     1  ZINC000992031068   -0.0800
     16 C16       -14.5580   -1.0190   49.7935 C.2     1  ZINC000992031068    0.1000
     17 C17       -14.9585   -2.0970   49.0804 C.2     1  ZINC000992031068   -0.2500
     18 C18       -14.5406   -1.9175   47.7576 C.2     1  ZINC000992031068    0.0500
     19 N19       -13.9119   -0.7727   47.6795 N.2     1  ZINC000992031068   -0.2900
     20 N20       -13.9143   -0.1843   48.9508 N.pl3   1  ZINC000992031068   -0.3700
     21 C21       -13.3159    1.1052   49.3048 C.3     1  ZINC000992031068    0.1000
     22 C22       -12.4256   -2.4761   54.7427 C.3     1  ZINC000992031068   -0.1400
     23 N23        -9.6843   -3.3890   59.5850 N.ar    1  ZINC000992031068   -0.5000
     24 C24        -8.7876   -3.1808   60.5253 C.ar    1  ZINC000992031068    0.3000
     25 N25        -8.8640   -2.1510   61.3458 N.ar    1  ZINC000992031068   -0.5100
     26 H26        -9.4039    0.7342   61.7821 H       1  ZINC000992031068    0.0900
     27 H27       -10.9794    0.1528   62.3719 H       1  ZINC000992031068    0.0900
     28 H28        -9.4786   -0.3890   63.1609 H       1  ZINC000992031068    0.0900
     29 H29       -11.6520   -0.7697   60.1895 H       1  ZINC000992031068    0.1600
     30 H30       -11.0521   -4.6359   57.8806 H       1  ZINC000992031068    0.4100
     31 H31       -13.0288   -5.2340   56.6588 H       1  ZINC000992031068    0.0700
     32 H32       -13.5715   -3.5443   56.7951 H       1  ZINC000992031068    0.0800
     33 H33       -11.0319   -4.1284   55.2156 H       1  ZINC000992031068    0.1000
     34 H34       -12.4659   -5.3094   53.6151 H       1  ZINC000992031068    0.0800
     35 H35       -13.9690   -4.5571   54.3050 H       1  ZINC000992031068    0.0900
     36 H36       -11.6609   -3.1514   52.7783 H       1  ZINC000992031068    0.1200
     37 H37       -14.5136   -3.1100   52.4632 H       1  ZINC000992031068    0.4000
     38 H38       -15.7127   -1.2909   51.5674 H       1  ZINC000992031068    0.1200
     39 H39       -14.8846    0.2807   51.4544 H       1  ZINC000992031068    0.1100
     40 H40       -15.5039   -2.9462   49.4647 H       1  ZINC000992031068    0.1500
     41 H41       -14.7076   -2.6053   46.9419 H       1  ZINC000992031068    0.1800
     42 H42       -14.0534    1.8967   49.1721 H       1  ZINC000992031068    0.0800
     43 H43       -12.9913    1.0817   50.3451 H       1  ZINC000992031068    0.0800
     44 H44       -12.4577    1.2965   48.6606 H       1  ZINC000992031068    0.0900
     45 H45       -13.3529   -2.0685   55.1456 H       1  ZINC000992031068    0.0900
     46 H46       -11.5914   -1.7775   54.8081 H       1  ZINC000992031068    0.0800
     47 H47        -7.9631   -3.8710   60.6254 H       1  ZINC000992031068    0.2100
@<TRIPOS>BOND
     1     1     2    1
     2     1    26    1
     3     1    27    1
     4     1    28    1
     5     2    25   ar
     6     2     3   ar
     7     3     4   ar
     8     3    29    1
     9     4     5    1
    10     4    23   ar
    11     5     6    2
    12     5     7   am
    13     7     8    1
    14     7    30    1
    15     8     9    1
    16     8    31    1
    17     8    32    1
    18     9    22    1
    19     9    10    1
    20     9    33    1
    21    10    11    1
    22    10    34    1
    23    10    35    1
    24    11    12    1
    25    11    22    1
    26    11    36    1
    27    12    13   am
    28    12    37    1
    29    13    14    2
    30    13    15    1
    31    15    16    1
    32    15    38    1
    33    15    39    1
    34    16    20    1
    35    16    17    2
    36    17    18    1
    37    17    40    1
    38    18    19    2
    39    18    41    1
    40    19    20    1
    41    20    21    1
    42    21    42    1
    43    21    43    1
    44    21    44    1
    45    22    45    1
    46    22    46    1
    47    23    24   ar
    48    24    25   ar
    49    24    47    1
@<TRIPOS>SUBSTRUCTURE
     1 ZINC000992031068        1 TEMP              0 ****  ****    0 ROOT


##########                                Name:    ZINC001344051361
##########                DOCK_Rotatable_Bonds:                   8
##########                         Heavy_Atoms:                  28
##########                    Molecular_Weight:             379.456
##########                DOCK_Rotatable_Bonds:                   8
##########                       Formal_Charge:          -0.0100006
##########                     HBond_Acceptors:                   5
##########                        HBond_Donors:                   0
##########                         Heavy_Atoms:                  28
##########                          Grid_Score:          -33.778927
##########                     Grid_vdw_energy:          -32.471992
##########                      Grid_es_energy:           -1.306934
##########           Internal_energy_repulsive:           16.885086

@<TRIPOS>MOLECULE
ZINC001344051361
 53 56 1 0 0
SMALL
USER_CHARGES


@<TRIPOS>ATOM
      1 O1         -9.0393   -0.5170   52.5115 O.2     1  ZINC001344051361   -0.4800
      2 C2         -9.4915   -0.0614   53.5351 C.2     1  ZINC001344051361    0.4800
      3 O3        -10.4818   -0.7027   54.1752 O.3     1  ZINC001344051361   -0.3500
      4 C4        -11.1431   -1.7778   53.4575 C.3     1  ZINC001344051361    0.0700
      5 C5        -12.2209   -2.3986   54.3485 C.3     1  ZINC001344051361   -0.1000
      6 H6        -12.6961   -1.6178   54.9424 H       1  ZINC001344051361    0.0900
      7 C7        -13.2719   -3.0868   53.4747 C.3     1  ZINC001344051361   -0.1200
      8 C8        -14.3676   -3.6799   54.3634 C.3     1  ZINC001344051361   -0.1300
      9 C9        -13.7520   -4.7283   55.2953 C.3     1  ZINC001344051361    0.0800
     10 N10       -12.6433   -4.1103   56.0354 N.am    1  ZINC001344051361   -0.6100
     11 C11       -12.6015   -4.1646   57.3815 C.2     1  ZINC001344051361    0.5600
     12 O12       -13.4866   -4.7288   57.9946 O.2     1  ZINC001344051361   -0.5300
     13 C13       -11.4793   -3.5381   58.1122 C.ar    1  ZINC001344051361   -0.1300
     14 C14       -11.6047   -2.2402   58.6099 C.ar    1  ZINC001344051361   -0.1000
     15 C15       -10.5539   -1.6615   59.2913 C.ar    1  ZINC001344051361   -0.1300
     16 C16        -9.3777   -2.3647   59.4813 C.ar    1  ZINC001344051361   -0.0900
     17 C17        -9.2467   -3.6515   58.9901 C.ar    1  ZINC001344051361   -0.1300
     18 C18       -10.2921   -4.2441   58.3124 C.ar    1  ZINC001344051361   -0.0600
     19 C19       -11.5807   -3.4319   55.2808 C.3     1  ZINC001344051361    0.1200
     20 C20        -8.9394    1.2235   54.0965 C.3     1  ZINC001344051361    0.0200
     21 O21        -8.3578    2.1136   53.1417 O.3     1  ZINC001344051361   -0.2500
     22 C22        -9.1542    2.5316   52.1229 C.ar    1  ZINC001344051361    0.1200
     23 C23        -8.5895    3.0672   50.9745 C.ar    1  ZINC001344051361   -0.2000
     24 C24        -9.4012    3.4909   49.9400 C.ar    1  ZINC001344051361   -0.0800
     25 C25       -10.7753    3.3820   50.0488 C.ar    1  ZINC001344051361   -0.1500
     26 C26       -11.3405    2.8489   51.1924 C.ar    1  ZINC001344051361   -0.0800
     27 C27       -10.5329    2.4180   52.2272 C.ar    1  ZINC001344051361   -0.1400
     28 C28        -9.6694    1.8448   55.2889 C.3     1  ZINC001344051361   -0.1700
     29 C29        -8.3097    1.1727   55.4899 C.3     1  ZINC001344051361   -0.1100
     30 H30       -11.6037   -1.3812   52.5528 H       1  ZINC001344051361    0.0800
     31 H31       -10.4110   -2.5392   53.1886 H       1  ZINC001344051361    0.0800
     32 H32       -13.7116   -2.3582   52.7936 H       1  ZINC001344051361    0.0700
     33 H33       -12.8006   -3.8834   52.8990 H       1  ZINC001344051361    0.0700
     34 H34       -14.8228   -2.8874   54.9576 H       1  ZINC001344051361    0.0700
     35 H35       -15.1278   -4.1495   53.7392 H       1  ZINC001344051361    0.0800
     36 H36       -14.5073   -5.0821   55.9970 H       1  ZINC001344051361    0.1100
     37 H37       -13.3766   -5.5652   54.7064 H       1  ZINC001344051361    0.0700
     38 H38       -12.5221   -1.6899   58.4616 H       1  ZINC001344051361    0.1400
     39 H39       -10.6496   -0.6572   59.6770 H       1  ZINC001344051361    0.1300
     40 H40        -8.5579   -1.9071   60.0151 H       1  ZINC001344051361    0.1300
     41 H41        -8.3257   -4.1949   59.1415 H       1  ZINC001344051361    0.1300
     42 H42       -10.1887   -5.2488   57.9297 H       1  ZINC001344051361    0.1300
     43 H43       -11.0280   -4.1628   54.6905 H       1  ZINC001344051361    0.0700
     44 H44       -10.9037   -2.9310   55.9730 H       1  ZINC001344051361    0.1000
     45 H45        -7.5163    3.1532   50.8894 H       1  ZINC001344051361    0.1300
     46 H46        -8.9621    3.9081   49.0458 H       1  ZINC001344051361    0.1300
     47 H47       -11.4082    3.7141   49.2391 H       1  ZINC001344051361    0.1300
     48 H48       -12.4141    2.7651   51.2751 H       1  ZINC001344051361    0.1300
     49 H49       -10.9748    2.0017   53.1204 H       1  ZINC001344051361    0.1300
     50 H50        -9.7063    2.9326   55.3454 H       1  ZINC001344051361    0.1200
     51 H51       -10.5490    1.3241   55.6674 H       1  ZINC001344051361    0.1200
     52 H52        -8.2947    0.2099   56.0008 H       1  ZINC001344051361    0.1200
     53 H53        -7.4520    1.8185   55.6786 H       1  ZINC001344051361    0.1200
@<TRIPOS>BOND
     1     1     2    2
     2     2     3    1
     3     2    20    1
     4     3     4    1
     5     4     5    1
     6     4    30    1
     7     4    31    1
     8     5     6    1
     9     5    19    1
    10     5     7    1
    11     7     8    1
    12     7    32    1
    13     7    33    1
    14     8     9    1
    15     8    34    1
    16     8    35    1
    17     9    10    1
    18     9    36    1
    19     9    37    1
    20    10    11   am
    21    10    19    1
    22    11    12    2
    23    11    13    1
    24    13    18   ar
    25    13    14   ar
    26    14    15   ar
    27    14    38    1
    28    15    16   ar
    29    15    39    1
    30    16    17   ar
    31    16    40    1
    32    17    18   ar
    33    17    41    1
    34    18    42    1
    35    19    43    1
    36    19    44    1
    37    20    29    1
    38    20    21    1
    39    20    28    1
    40    21    22    1
    41    22    27   ar
    42    22    23   ar
    43    23    24   ar
    44    23    45    1
    45    24    25   ar
    46    24    46    1
    47    25    26   ar
    48    25    47    1
    49    26    27   ar
    50    26    48    1
    51    27    49    1
    52    28    29    1
    53    28    50    1
    54    28    51    1
    55    29    52    1
    56    29    53    1
@<TRIPOS>SUBSTRUCTURE
     1 ZINC001344051361        1 TEMP              0 ****  ****    0 ROOT


##########                                Name:    ZINC001067560454
##########                DOCK_Rotatable_Bonds:                   4
##########                         Heavy_Atoms:                  25
##########                    Molecular_Weight:             342.444
##########                DOCK_Rotatable_Bonds:                   4
##########                       Formal_Charge:          0.00999971
##########                     HBond_Acceptors:                   7
##########                        HBond_Donors:                   1
##########                         Heavy_Atoms:                  25
##########                          Grid_Score:          -33.775940
##########                     Grid_vdw_energy:          -32.278767
##########                      Grid_es_energy:           -1.497175
##########           Internal_energy_repulsive:           13.876353

@<TRIPOS>MOLECULE
ZINC001067560454
 51 54 1 0 0
SMALL
USER_CHARGES


@<TRIPOS>ATOM
      1 C1        -13.6020   -1.6085   56.2352 C.3     1  ZINC001067560454   -0.1500
      2 C2        -13.1096   -2.3963   55.0195 C.3     1  ZINC001067560454    0.1000
      3 H3        -13.5535   -3.3918   55.0278 H       1  ZINC001067560454    0.0600
      4 C4        -13.5190   -1.6659   53.7386 C.3     1  ZINC001067560454   -0.1200
      5 C5        -13.0070   -2.4472   52.5255 C.3     1  ZINC001067560454    0.1400
      6 H6        -13.4693   -3.4342   52.5062 H       1  ZINC001067560454    0.0900
      7 N7        -13.3469   -1.7235   51.2979 N.am    1  ZINC001067560454   -0.7200
      8 C8        -14.5542   -1.8981   50.7250 C.2     1  ZINC001067560454    0.5400
      9 O9        -15.3588   -2.6555   51.2248 O.2     1  ZINC001067560454   -0.5300
     10 C10       -14.9046   -1.1522   49.4632 C.3     1  ZINC001067560454   -0.1100
     11 C11       -15.9302   -1.8913   48.6015 C.3     1  ZINC001067560454   -0.1300
     12 C12       -15.2470    0.3285   49.6979 C.3     1  ZINC001067560454   -0.1200
     13 C13       -13.7482    0.6223   49.5188 C.3     1  ZINC001067560454   -0.1400
     14 C14       -13.6775   -0.6623   48.6763 C.3     1  ZINC001067560454   -0.1200
     15 C15       -11.4866   -2.5963   52.6288 C.3     1  ZINC001067560454   -0.1200
     16 C16       -11.1360   -3.2997   53.9419 C.3     1  ZINC001067560454    0.0600
     17 N17       -11.6467   -2.5126   55.0716 N.3     1  ZINC001067560454   -0.4900
     18 C18       -11.2349   -3.0515   56.2780 C.ar    1  ZINC001067560454    0.4400
     19 C19       -10.5472   -2.2664   57.2188 C.ar    1  ZINC001067560454   -0.0800
     20 N20       -10.1332   -0.9773   57.2631 N.2     1  ZINC001067560454   -0.4700
     21 C21        -9.5266   -0.7559   58.3931 C.2     1  ZINC001067560454    0.2700
     22 N22        -9.5140   -1.8926   59.1455 N.pl3   1  ZINC001067560454   -0.4800
     23 C23        -8.9247   -2.0434   60.4782 C.3     1  ZINC001067560454    0.0800
     24 C24       -10.1550   -2.8692   58.4260 C.ar    1  ZINC001067560454    0.2800
     25 N25       -10.4463   -4.1491   58.6333 N.ar    1  ZINC001067560454   -0.5200
     26 C26       -11.0930   -4.8460   57.7228 C.ar    1  ZINC001067560454    0.3300
     27 N27       -11.4855   -4.3223   56.5760 N.ar    1  ZINC001067560454   -0.5100
     28 H28       -13.1581   -0.6130   56.2272 H       1  ZINC001067560454    0.0700
     29 H29       -14.6878   -1.5225   56.1969 H       1  ZINC001067560454    0.0700
     30 H30       -13.3107   -2.1288   57.1477 H       1  ZINC001067560454    0.0500
     31 H31       -14.6057   -1.5934   53.6926 H       1  ZINC001067560454    0.0800
     32 H32       -13.0865   -0.6654   53.7361 H       1  ZINC001067560454    0.0800
     33 H33       -12.7030   -1.1186   50.8975 H       1  ZINC001067560454    0.4000
     34 H34       -16.7801   -2.1833   49.2183 H       1  ZINC001067560454    0.0600
     35 H35       -16.2711   -1.2359   47.8000 H       1  ZINC001067560454    0.0700
     36 H36       -15.4701   -2.7813   48.1721 H       1  ZINC001067560454    0.0600
     37 H37       -15.8731    0.7608   48.9174 H       1  ZINC001067560454    0.0900
     38 H38       -15.6160    0.5374   50.7021 H       1  ZINC001067560454    0.0700
     39 H39       -13.5461    1.5295   48.9495 H       1  ZINC001067560454    0.0700
     40 H40       -13.1787    0.5679   50.4466 H       1  ZINC001067560454    0.0800
     41 H41       -12.7793   -1.2533   48.8558 H       1  ZINC001067560454    0.0800
     42 H42       -13.8744   -0.5009   47.6165 H       1  ZINC001067560454    0.0900
     43 H43       -11.1211   -3.1885   51.7899 H       1  ZINC001067560454    0.0800
     44 H44       -11.0221   -1.6104   52.6089 H       1  ZINC001067560454    0.0800
     45 H45       -11.5894   -4.2909   53.9553 H       1  ZINC001067560454    0.0700
     46 H46       -10.0534   -3.3946   54.0254 H       1  ZINC001067560454    0.0800
     47 H47        -9.0963    0.1889   58.6906 H       1  ZINC001067560454    0.2300
     48 H48        -9.6729   -1.8080   61.2352 H       1  ZINC001067560454    0.0800
     49 H49        -8.5843   -3.0704   60.6108 H       1  ZINC001067560454    0.0900
     50 H50        -8.0784   -1.3641   60.5803 H       1  ZINC001067560454    0.0900
     51 H51       -11.3140   -5.8841   57.9227 H       1  ZINC001067560454    0.2100
@<TRIPOS>BOND
     1     1     2    1
     2     1    28    1
     3     1    29    1
     4     1    30    1
     5     2     3    1
     6     2    17    1
     7     2     4    1
     8     4     5    1
     9     4    31    1
    10     4    32    1
    11     5     6    1
    12     5     7    1
    13     5    15    1
    14     7     8   am
    15     7    33    1
    16     8     9    2
    17     8    10    1
    18    10    14    1
    19    10    11    1
    20    10    12    1
    21    11    34    1
    22    11    35    1
    23    11    36    1
    24    12    13    1
    25    12    37    1
    26    12    38    1
    27    13    14    1
    28    13    39    1
    29    13    40    1
    30    14    41    1
    31    14    42    1
    32    15    16    1
    33    15    43    1
    34    15    44    1
    35    16    17    1
    36    16    45    1
    37    16    46    1
    38    17    18    1
    39    18    27   ar
    40    18    19   ar
    41    19    24   ar
    42    19    20    1
    43    20    21    2
    44    21    22    1
    45    21    47    1
    46    22    23    1
    47    22    24    1
    48    23    48    1
    49    23    49    1
    50    23    50    1
    51    24    25   ar
    52    25    26   ar
    53    26    27   ar
    54    26    51    1
@<TRIPOS>SUBSTRUCTURE
     1 ZINC001067560454        1 TEMP              0 ****  ****    0 ROOT


##########                                Name:    ZINC001143596311
##########                DOCK_Rotatable_Bonds:                   9
##########                         Heavy_Atoms:                  21
##########                    Molecular_Weight:             335.811
##########                DOCK_Rotatable_Bonds:                   9
##########                       Formal_Charge:          0.00999959
##########                     HBond_Acceptors:                   9
##########                        HBond_Donors:                   3
##########                         Heavy_Atoms:                  21
##########                          Grid_Score:          -33.759380
##########                     Grid_vdw_energy:          -30.935347
##########                      Grid_es_energy:           -2.824034
##########           Internal_energy_repulsive:           14.932096

@<TRIPOS>MOLECULE
ZINC001143596311
 39 39 1 0 0
SMALL
USER_CHARGES


@<TRIPOS>ATOM
      1 C1         -1.6312    1.5670   64.2110 C.3     1  ZINC001143596311    0.0400
      2 O2         -3.0570    1.6509   64.1633 O.3     1  ZINC001143596311   -0.2600
      3 N3         -3.6997    1.6097   65.4769 N.3     1  ZINC001143596311   -0.3700
      4 C4         -3.1426    2.6361   66.3680 C.3     1  ZINC001143596311    0.0000
      5 C5         -5.1567    1.7530   65.3549 C.3     1  ZINC001143596311    0.0400
      6 C6         -5.8388    1.0439   66.5264 C.3     1  ZINC001143596311   -0.1300
      7 C7         -7.3004    1.4885   66.6107 C.3     1  ZINC001143596311    0.1200
      8 N8         -7.8896    1.4865   65.2694 N.am    1  ZINC001143596311   -0.7200
      9 C9         -8.4652    0.3670   64.7880 C.2     1  ZINC001143596311    0.5600
     10 O10        -8.4969   -0.6406   65.4673 O.2     1  ZINC001143596311   -0.5200
     11 C11        -9.0581    0.3645   63.4342 C.ar    1  ZINC001143596311   -0.1500
     12 C12        -9.6918    1.5080   62.9447 C.ar    1  ZINC001143596311   -0.0200
     13 C13       -10.2432    1.4996   61.6806 C.ar    1  ZINC001143596311   -0.1300
     14 C14       -10.1695    0.3597   60.8975 C.ar    1  ZINC001143596311    0.0700
     15 Cl15      -10.8660    0.3568   59.3073 Cl      1  ZINC001143596311   -0.0200
     16 C16        -9.5419   -0.7781   61.3779 C.ar    1  ZINC001143596311   -0.6800
     17 S17        -9.4527   -2.2234   60.3740 S.o2    1  ZINC001143596311    2.7000
     18 N18       -11.0013   -2.6100   59.9328 N.am    1  ZINC001143596311   -1.2500
     19 O19        -8.7790   -1.8430   59.1821 O.2     1  ZINC001143596311   -0.9400
     20 O20        -9.0028   -3.2726   61.2201 O.2     1  ZINC001143596311   -0.9500
     21 C21        -8.9816   -0.7798   62.6376 C.ar    1  ZINC001143596311    0.0500
     22 H22        -1.2372    2.4034   64.7883 H       1  ZINC001143596311    0.0400
     23 H23        -1.3380    0.6294   64.6833 H       1  ZINC001143596311    0.0500
     24 H24        -1.2310    1.6043   63.1978 H       1  ZINC001143596311    0.0900
     25 H25        -3.3025    3.6220   65.9314 H       1  ZINC001143596311    0.0400
     26 H26        -3.6381    2.5833   67.3374 H       1  ZINC001143596311    0.0900
     27 H27        -2.0739    2.4646   66.4963 H       1  ZINC001143596311    0.0800
     28 H28        -5.4200    2.8106   65.3673 H       1  ZINC001143596311    0.0500
     29 H29        -5.4883    1.3071   64.4172 H       1  ZINC001143596311    0.0900
     30 H30        -5.7955   -0.0345   66.3733 H       1  ZINC001143596311    0.0800
     31 H31        -5.3271    1.3000   67.4540 H       1  ZINC001143596311    0.0800
     32 H32        -7.8529    0.8012   67.2513 H       1  ZINC001143596311    0.0800
     33 H33        -7.3507    2.4941   67.0281 H       1  ZINC001143596311    0.0800
     34 H34        -7.8654    2.2909   64.7279 H       1  ZINC001143596311    0.4000
     35 H35        -9.7504    2.3972   63.5547 H       1  ZINC001143596311    0.1500
     36 H36       -10.7337    2.3836   61.3007 H       1  ZINC001143596311    0.1600
     37 H37       -11.6637   -2.8101   60.6126 H       1  ZINC001143596311    0.4200
     38 H38       -11.2461   -2.6363   58.9945 H       1  ZINC001143596311    0.4200
     39 H39        -8.4926   -1.6674   63.0111 H       1  ZINC001143596311    0.1700
@<TRIPOS>BOND
     1     1     2    1
     2     1    22    1
     3     1    23    1
     4     1    24    1
     5     2     3    1
     6     3     4    1
     7     3     5    1
     8     4    25    1
     9     4    26    1
    10     4    27    1
    11     5     6    1
    12     5    28    1
    13     5    29    1
    14     6     7    1
    15     6    30    1
    16     6    31    1
    17     7     8    1
    18     7    32    1
    19     7    33    1
    20     8     9   am
    21     8    34    1
    22     9    10    2
    23     9    11    1
    24    11    21   ar
    25    11    12   ar
    26    12    13   ar
    27    12    35    1
    28    13    14   ar
    29    13    36    1
    30    14    15    1
    31    14    16   ar
    32    16    17    1
    33    16    21   ar
    34    17    18   am
    35    17    19    2
    36    17    20    2
    37    18    37    1
    38    18    38    1
    39    21    39    1
@<TRIPOS>SUBSTRUCTURE
     1 ZINC001143596311        1 TEMP              0 ****  ****    0 ROOT


##########                                Name:    ZINC000151991096
##########                DOCK_Rotatable_Bonds:                   8
##########                         Heavy_Atoms:                  27
##########                    Molecular_Weight:             364.444
##########                DOCK_Rotatable_Bonds:                   8
##########                       Formal_Charge:          -0.0200004
##########                     HBond_Acceptors:                   5
##########                        HBond_Donors:                   1
##########                         Heavy_Atoms:                  27
##########                          Grid_Score:          -33.757401
##########                     Grid_vdw_energy:          -31.836988
##########                      Grid_es_energy:           -1.920412
##########           Internal_energy_repulsive:           19.853399

@<TRIPOS>MOLECULE
ZINC000151991096
 51 53 1 0 0
SMALL
USER_CHARGES


@<TRIPOS>ATOM
      1 C1         -5.3476    1.1897   66.0826 C.3     1  ZINC000151991096   -0.1500
      2 C2         -6.3445    2.0650   66.8450 C.3     1  ZINC000151991096   -0.1300
      3 C3         -7.7339    1.4274   66.7838 C.3     1  ZINC000151991096    0.1400
      4 H4         -7.7105    0.4567   67.2792 H       1  ZINC000151991096    0.1000
      5 N5         -8.1294    1.2519   65.3842 N.am    1  ZINC000151991096   -0.7200
      6 C6         -8.4907    0.0342   64.9335 C.2     1  ZINC000151991096    0.5600
      7 O7         -8.4867   -0.9191   65.6883 O.2     1  ZINC000151991096   -0.5300
      8 C8         -8.8909   -0.1422   63.5237 C.ar    1  ZINC000151991096   -0.1700
      9 C9         -9.6165    0.8577   62.8712 C.ar    1  ZINC000151991096   -0.0500
     10 C10        -9.9875    0.6896   61.5558 C.ar    1  ZINC000151991096   -0.1600
     11 C11        -9.6413   -0.4731   60.8773 C.ar    1  ZINC000151991096    0.1600
     12 O12       -10.0084   -0.6349   59.5809 O.3     1  ZINC000151991096   -0.3000
     13 C13        -9.6286   -1.8579   58.9468 C.3     1  ZINC000151991096    0.0900
     14 C14       -10.2651   -1.9355   57.5831 C.ar    1  ZINC000151991096   -0.0500
     15 C15       -10.4004   -0.7962   56.8175 C.ar    1  ZINC000151991096   -0.1000
     16 C16       -10.9847   -0.8658   55.5650 C.ar    1  ZINC000151991096   -0.0900
     17 C17       -11.4373   -2.0765   55.0720 C.ar    1  ZINC000151991096   -0.1200
     18 C18       -11.3084   -3.2239   55.8272 C.ar    1  ZINC000151991096   -0.0700
     19 C19       -10.7143   -3.1622   57.0891 C.ar    1  ZINC000151991096   -0.0200
     20 C20       -10.5771   -4.3492   57.8785 C.1     1  ZINC000151991096    0.2400
     21 N21       -10.4683   -5.2907   58.5045 N.1     1  ZINC000151991096   -0.4000
     22 C22        -8.9195   -1.4701   61.5229 C.ar    1  ZINC000151991096   -0.2200
     23 C23        -8.5401   -1.3073   62.8366 C.ar    1  ZINC000151991096   -0.0100
     24 C24        -8.7433    2.3356   67.4890 C.3     1  ZINC000151991096    0.0700
     25 H25        -8.4630    2.4573   68.5353 H       1  ZINC000151991096    0.1000
     26 C26       -10.1564    1.7214   67.3936 C.3     1  ZINC000151991096   -0.1500
     27 C27       -11.0445    2.9731   67.1558 C.3     1  ZINC000151991096   -0.1600
     28 C28       -10.0928    3.8518   66.3055 C.3     1  ZINC000151991096    0.0500
     29 O29        -8.7804    3.6139   66.8439 O.3     1  ZINC000151991096   -0.3700
     30 H30        -5.6620    1.1026   65.0425 H       1  ZINC000151991096    0.0500
     31 H31        -4.3578    1.6439   66.1262 H       1  ZINC000151991096    0.0500
     32 H32        -5.3131    0.1991   66.5359 H       1  ZINC000151991096    0.0600
     33 H33        -6.0302    2.1521   67.8851 H       1  ZINC000151991096    0.0700
     34 H34        -6.3790    3.0557   66.3916 H       1  ZINC000151991096    0.0700
     35 H35        -8.1314    2.0122   64.7817 H       1  ZINC000151991096    0.4000
     36 H36        -9.8862    1.7612   63.3978 H       1  ZINC000151991096    0.1300
     37 H37       -10.5488    1.4618   61.0508 H       1  ZINC000151991096    0.1400
     38 H38        -8.5440   -1.8924   58.8441 H       1  ZINC000151991096    0.0800
     39 H39        -9.9632   -2.7003   59.5524 H       1  ZINC000151991096    0.0800
     40 H40       -10.0497    0.1523   57.1966 H       1  ZINC000151991096    0.1400
     41 H41       -11.0880    0.0295   54.9698 H       1  ZINC000151991096    0.1400
     42 H42       -11.8931   -2.1235   54.0940 H       1  ZINC000151991096    0.1400
     43 H43       -11.6626   -4.1685   55.4413 H       1  ZINC000151991096    0.1400
     44 H44        -8.6526   -2.3722   60.9924 H       1  ZINC000151991096    0.1300
     45 H45        -7.9790   -2.0823   63.3375 H       1  ZINC000151991096    0.1400
     46 H46       -10.2239    1.0323   66.5517 H       1  ZINC000151991096    0.0800
     47 H47       -10.4274    1.2248   68.3253 H       1  ZINC000151991096    0.0900
     48 H48       -11.9449    2.7158   66.5981 H       1  ZINC000151991096    0.0800
     49 H49       -11.2942    3.4622   68.0974 H       1  ZINC000151991096    0.0800
     50 H50       -10.1335    3.5501   65.2589 H       1  ZINC000151991096    0.0600
     51 H51       -10.3574    4.9042   66.4072 H       1  ZINC000151991096    0.0900
@<TRIPOS>BOND
     1     1     2    1
     2     1    30    1
     3     1    31    1
     4     1    32    1
     5     2     3    1
     6     2    33    1
     7     2    34    1
     8     3     4    1
     9     3     5    1
    10     3    24    1
    11     5     6   am
    12     5    35    1
    13     6     7    2
    14     6     8    1
    15     8    23   ar
    16     8     9   ar
    17     9    10   ar
    18     9    36    1
    19    10    11   ar
    20    10    37    1
    21    11    12    1
    22    11    22   ar
    23    12    13    1
    24    13    14    1
    25    13    38    1
    26    13    39    1
    27    14    19   ar
    28    14    15   ar
    29    15    16   ar
    30    15    40    1
    31    16    17   ar
    32    16    41    1
    33    17    18   ar
    34    17    42    1
    35    18    19   ar
    36    18    43    1
    37    19    20    1
    38    20    21    3
    39    22    23   ar
    40    22    44    1
    41    23    45    1
    42    24    25    1
    43    24    29    1
    44    24    26    1
    45    26    27    1
    46    26    46    1
    47    26    47    1
    48    27    28    1
    49    27    48    1
    50    27    49    1
    51    28    29    1
    52    28    50    1
    53    28    51    1
@<TRIPOS>SUBSTRUCTURE
     1 ZINC000151991096        1 TEMP              0 ****  ****    0 ROOT


##########                                Name:    ZINC000942890482
##########                DOCK_Rotatable_Bonds:                   8
##########                         Heavy_Atoms:                  25
##########                    Molecular_Weight:             346.445
##########                DOCK_Rotatable_Bonds:                   8
##########                       Formal_Charge:          -0.0100004
##########                     HBond_Acceptors:                   5
##########                        HBond_Donors:                   0
##########                         Heavy_Atoms:                  25
##########                          Grid_Score:          -33.746029
##########                     Grid_vdw_energy:          -33.468830
##########                      Grid_es_energy:           -0.277199
##########           Internal_energy_repulsive:           28.466486

@<TRIPOS>MOLECULE
ZINC000942890482
 52 54 1 0 0
SMALL
USER_CHARGES


@<TRIPOS>ATOM
      1 C1        -14.3290   -3.5523   54.3814 C.3     1  ZINC000942890482   -0.1700
      2 C2        -13.1495   -4.5095   54.5643 C.3     1  ZINC000942890482    0.1000
      3 N3        -12.3028   -4.0369   55.6625 N.am    1  ZINC000942890482   -0.6000
      4 C4        -12.5367   -4.4557   56.9221 C.2     1  ZINC000942890482    0.5700
      5 O5        -13.4504   -5.2255   57.1468 O.2     1  ZINC000942890482   -0.5100
      6 C6        -11.6830   -3.9792   58.0294 C.ar    1  ZINC000942890482   -0.1400
      7 C7        -10.3851   -4.4728   58.1759 C.ar    1  ZINC000942890482   -0.0600
      8 C8         -9.5924   -4.0242   59.2107 C.ar    1  ZINC000942890482   -0.1600
      9 C9        -10.0819   -3.0849   60.1052 C.ar    1  ZINC000942890482    0.1300
     10 F10        -9.3010   -2.6487   61.1178 F       1  ZINC000942890482   -0.1300
     11 C11       -11.3700   -2.5911   59.9642 C.ar    1  ZINC000942890482   -0.1600
     12 C12       -12.1693   -3.0290   58.9303 C.ar    1  ZINC000942890482   -0.0100
     13 C13       -13.5688   -2.4915   58.7782 C.3     1  ZINC000942890482   -0.1200
     14 C14       -11.2018   -3.1091   55.3916 C.3     1  ZINC000942890482    0.1400
     15 H15       -10.2743   -3.4655   55.8396 H       1  ZINC000942890482    0.1100
     16 C16       -11.5450   -1.6792   55.8865 C.3     1  ZINC000942890482   -0.1500
     17 C17       -10.6898   -0.7811   54.9680 C.3     1  ZINC000942890482    0.1100
     18 N18       -10.3868   -1.5579   53.7571 N.am    1  ZINC000942890482   -0.6200
     19 C19        -9.6422   -1.1330   52.7171 C.2     1  ZINC000942890482    0.5300
     20 O20        -9.4577   -1.8619   51.7655 O.2     1  ZINC000942890482   -0.5400
     21 C21        -9.0385    0.2477   52.7369 C.3     1  ZINC000942890482   -0.1300
     22 C22        -7.7366    0.2467   51.9332 C.3     1  ZINC000942890482   -0.0700
     23 C23        -7.0780    1.6244   52.0275 C.3     1  ZINC000942890482   -0.1600
     24 C24        -6.6714    2.3041   50.7185 C.3     1  ZINC000942890482   -0.1800
     25 C25        -7.8731    2.8246   51.5097 C.3     1  ZINC000942890482   -0.1800
     26 C26       -11.0309   -2.8798   53.8691 C.3     1  ZINC000942890482    0.0900
     27 H27       -14.9132   -3.5156   55.3009 H       1  ZINC000942890482    0.0600
     28 H28       -13.9550   -2.5552   54.1487 H       1  ZINC000942890482    0.0600
     29 H29       -14.9589   -3.9039   53.5643 H       1  ZINC000942890482    0.0700
     30 H30       -13.5235   -5.5065   54.7971 H       1  ZINC000942890482    0.0900
     31 H31       -12.5652   -4.5461   53.6449 H       1  ZINC000942890482    0.0900
     32 H32       -10.0030   -5.2047   57.4797 H       1  ZINC000942890482    0.1400
     33 H33        -8.5885   -4.4056   59.3252 H       1  ZINC000942890482    0.1400
     34 H34       -11.7464   -1.8594   60.6638 H       1  ZINC000942890482    0.1400
     35 H35       -13.5418   -1.5644   58.2056 H       1  ZINC000942890482    0.0900
     36 H36       -14.1845   -3.2235   58.2556 H       1  ZINC000942890482    0.0700
     37 H37       -13.9927   -2.2976   59.7636 H       1  ZINC000942890482    0.0700
     38 H38       -12.6061   -1.4689   55.7521 H       1  ZINC000942890482    0.1000
     39 H39       -11.2546   -1.5520   56.9293 H       1  ZINC000942890482    0.0900
     40 H40       -11.2484    0.1164   54.7025 H       1  ZINC000942890482    0.0700
     41 H41        -9.7641   -0.5078   55.4744 H       1  ZINC000942890482    0.0700
     42 H42        -9.7383    0.9564   52.2941 H       1  ZINC000942890482    0.0900
     43 H43        -8.8298    0.5383   53.7665 H       1  ZINC000942890482    0.0900
     44 H44        -7.0610   -0.5074   52.3370 H       1  ZINC000942890482    0.0700
     45 H45        -7.9539    0.0185   50.8898 H       1  ZINC000942890482    0.0700
     46 H46        -6.4384    1.7813   52.8962 H       1  ZINC000942890482    0.1000
     47 H47        -5.7642    2.9083   50.7257 H       1  ZINC000942890482    0.0900
     48 H48        -6.8732    1.7698   49.7901 H       1  ZINC000942890482    0.0900
     49 H49        -8.8655    2.6326   51.1018 H       1  ZINC000942890482    0.0900
     50 H50        -7.7565    3.7711   52.0374 H       1  ZINC000942890482    0.0900
     51 H51       -10.3925   -3.6506   53.4375 H       1  ZINC000942890482    0.0800
     52 H52       -12.0030   -2.8711   53.3761 H       1  ZINC000942890482    0.0900
@<TRIPOS>BOND
     1     1     2    1
     2     1    27    1
     3     1    28    1
     4     1    29    1
     5     2     3    1
     6     2    30    1
     7     2    31    1
     8     3     4   am
     9     3    14    1
    10     4     5    2
    11     4     6    1
    12     6    12   ar
    13     6     7   ar
    14     7     8   ar
    15     7    32    1
    16     8     9   ar
    17     8    33    1
    18     9    10    1
    19     9    11   ar
    20    11    12   ar
    21    11    34    1
    22    12    13    1
    23    13    35    1
    24    13    36    1
    25    13    37    1
    26    14    15    1
    27    14    26    1
    28    14    16    1
    29    16    17    1
    30    16    38    1
    31    16    39    1
    32    17    18    1
    33    17    40    1
    34    17    41    1
    35    18    19   am
    36    18    26    1
    37    19    20    2
    38    19    21    1
    39    21    22    1
    40    21    42    1
    41    21    43    1
    42    22    23    1
    43    22    44    1
    44    22    45    1
    45    23    25    1
    46    23    24    1
    47    23    46    1
    48    24    25    1
    49    24    47    1
    50    24    48    1
    51    25    49    1
    52    25    50    1
    53    26    51    1
    54    26    52    1
@<TRIPOS>SUBSTRUCTURE
     1 ZINC000942890482        1 TEMP              0 ****  ****    0 ROOT


##########                                Name:    ZINC000004598904
##########                DOCK_Rotatable_Bonds:                  13
##########                         Heavy_Atoms:                  30
##########                    Molecular_Weight:             412.442
##########                DOCK_Rotatable_Bonds:                  13
##########                       Formal_Charge:          -0.0300005
##########                     HBond_Acceptors:                   8
##########                        HBond_Donors:                   2
##########                         Heavy_Atoms:                  30
##########                          Grid_Score:          -33.733391
##########                     Grid_vdw_energy:          -34.525578
##########                      Grid_es_energy:            0.792188
##########           Internal_energy_repulsive:           13.475360

@<TRIPOS>MOLECULE
ZINC000004598904
 54 55 1 0 0
SMALL
USER_CHARGES


@<TRIPOS>ATOM
      1 C1         -0.3431    2.9829   49.2125 C.3     1  ZINC000004598904   -0.1500
      2 C2         -0.5661    1.8799   50.2492 C.3     1  ZINC000004598904    0.0600
      3 O3         -1.8455    2.0835   50.9048 O.3     1  ZINC000004598904   -0.3500
      4 C4         -2.9400    1.6256   50.2659 C.2     1  ZINC000004598904    0.5100
      5 O5         -2.8206    0.9693   49.2503 O.2     1  ZINC000004598904   -0.5100
      6 C6         -4.2827    1.9210   50.7993 C.ar    1  ZINC000004598904   -0.1500
      7 C7         -4.4212    2.6480   51.9854 C.ar    1  ZINC000004598904   -0.0400
      8 C8         -5.6761    2.9217   52.4803 C.ar    1  ZINC000004598904   -0.1400
      9 C9         -6.8061    2.4759   51.8017 C.ar    1  ZINC000004598904    0.1800
     10 N10        -8.0755    2.7555   52.3057 N.am    1  ZINC000004598904   -0.6700
     11 C11        -8.8876    1.7482   52.6830 C.2     1  ZINC000004598904    0.5200
     12 O12        -8.5140    0.5986   52.5842 O.2     1  ZINC000004598904   -0.5100
     13 C13       -10.2597    2.0505   53.2278 C.3     1  ZINC000004598904   -0.1300
     14 C14       -11.2930    1.1666   52.5263 C.3     1  ZINC000004598904   -0.1300
     15 C15       -11.8011    0.1258   53.4905 C.2     1  ZINC000004598904    0.5200
     16 O16       -12.0118    0.4224   54.6474 O.2     1  ZINC000004598904   -0.5100
     17 N17       -12.0215   -1.1346   53.0671 N.am    1  ZINC000004598904   -0.6700
     18 C18       -12.4916   -2.0974   53.9591 C.ar    1  ZINC000004598904    0.1800
     19 C19       -11.5923   -2.8251   54.7324 C.ar    1  ZINC000004598904   -0.1400
     20 C20       -12.0529   -3.7764   55.6142 C.ar    1  ZINC000004598904   -0.0300
     21 C21       -13.4260   -4.0109   55.7325 C.ar    1  ZINC000004598904   -0.1500
     22 C22       -13.9233   -5.0290   56.6763 C.2     1  ZINC000004598904    0.5100
     23 O23       -13.5027   -6.1674   56.6190 O.2     1  ZINC000004598904   -0.5100
     24 O24       -14.8441   -4.6967   57.6022 O.3     1  ZINC000004598904   -0.3600
     25 C25       -14.6161   -3.4727   58.3491 C.3     1  ZINC000004598904    0.0600
     26 C26       -15.8518   -3.1521   59.1924 C.3     1  ZINC000004598904   -0.1500
     27 C27       -14.3267   -3.2777   54.9542 C.ar    1  ZINC000004598904   -0.0400
     28 C28       -13.8593   -2.3245   54.0780 C.ar    1  ZINC000004598904   -0.1600
     29 C29        -6.6721    1.7520   50.6209 C.ar    1  ZINC000004598904   -0.1600
     30 C30        -5.4204    1.4795   50.1170 C.ar    1  ZINC000004598904   -0.0300
     31 H31        -0.3470    3.9537   49.7083 H       1  ZINC000004598904    0.0700
     32 H32         0.6174    2.8301   48.7203 H       1  ZINC000004598904    0.0800
     33 H33        -1.1408    2.9506   48.4705 H       1  ZINC000004598904    0.0700
     34 H34        -0.5622    0.9092   49.7535 H       1  ZINC000004598904    0.0700
     35 H35         0.2317    1.9122   50.9914 H       1  ZINC000004598904    0.0700
     36 H36        -3.5446    2.9940   52.5129 H       1  ZINC000004598904    0.1400
     37 H37        -5.7838    3.4829   53.3968 H       1  ZINC000004598904    0.1400
     38 H38        -8.3742    3.6750   52.3847 H       1  ZINC000004598904    0.4200
     39 H39       -10.2776    1.8500   54.2991 H       1  ZINC000004598904    0.1100
     40 H40       -10.4983    3.0992   53.0503 H       1  ZINC000004598904    0.1100
     41 H41       -12.1251    1.7820   52.1843 H       1  ZINC000004598904    0.1100
     42 H42       -10.8296    0.6744   51.6713 H       1  ZINC000004598904    0.1100
     43 H43       -11.8531   -1.3718   52.1417 H       1  ZINC000004598904    0.4200
     44 H44       -10.5317   -2.6433   54.6405 H       1  ZINC000004598904    0.1400
     45 H45       -11.3543   -4.3413   56.2136 H       1  ZINC000004598904    0.1400
     46 H46       -13.7534   -3.6013   59.0028 H       1  ZINC000004598904    0.0700
     47 H47       -14.4273   -2.6536   57.6553 H       1  ZINC000004598904    0.0700
     48 H48       -15.6806   -2.2332   59.7532 H       1  ZINC000004598904    0.0800
     49 H49       -16.7144   -3.0235   58.5387 H       1  ZINC000004598904    0.0700
     50 H50       -16.0406   -3.9712   59.8863 H       1  ZINC000004598904    0.0700
     51 H51       -15.3881   -3.4564   55.0427 H       1  ZINC000004598904    0.1400
     52 H52       -14.5544   -1.7573   53.4767 H       1  ZINC000004598904    0.1400
     53 H53        -7.5512    1.4076   50.0967 H       1  ZINC000004598904    0.1400
     54 H54        -5.3171    0.9177   49.2005 H       1  ZINC000004598904    0.1400
@<TRIPOS>BOND
     1     1     2    1
     2     1    31    1
     3     1    32    1
     4     1    33    1
     5     2     3    1
     6     2    34    1
     7     2    35    1
     8     3     4    1
     9     4     5    2
    10     4     6    1
    11     6    30   ar
    12     6     7   ar
    13     7     8   ar
    14     7    36    1
    15     8     9   ar
    16     8    37    1
    17     9    10    1
    18     9    29   ar
    19    10    11   am
    20    10    38    1
    21    11    12    2
    22    11    13    1
    23    13    14    1
    24    13    39    1
    25    13    40    1
    26    14    15    1
    27    14    41    1
    28    14    42    1
    29    15    16    2
    30    15    17   am
    31    17    18    1
    32    17    43    1
    33    18    28   ar
    34    18    19   ar
    35    19    20   ar
    36    19    44    1
    37    20    21   ar
    38    20    45    1
    39    21    22    1
    40    21    27   ar
    41    22    23    2
    42    22    24    1
    43    24    25    1
    44    25    26    1
    45    25    46    1
    46    25    47    1
    47    26    48    1
    48    26    49    1
    49    26    50    1
    50    27    28   ar
    51    27    51    1
    52    28    52    1
    53    29    30   ar
    54    29    53    1
    55    30    54    1
@<TRIPOS>SUBSTRUCTURE
     1 ZINC000004598904        1 TEMP              0 ****  ****    0 ROOT


##########                                Name:    ZINC001011267435
##########                DOCK_Rotatable_Bonds:                   7
##########                         Heavy_Atoms:                  24
##########                    Molecular_Weight:             331.458
##########                DOCK_Rotatable_Bonds:                   7
##########                       Formal_Charge:        -4.47035e-08
##########                     HBond_Acceptors:                   5
##########                        HBond_Donors:                   0
##########                         Heavy_Atoms:                  24
##########                          Grid_Score:          -33.728111
##########                     Grid_vdw_energy:          -33.577438
##########                      Grid_es_energy:           -0.150672
##########           Internal_energy_repulsive:           38.553883

@<TRIPOS>MOLECULE
ZINC001011267435
 53 54 1 0 0
SMALL
USER_CHARGES


@<TRIPOS>ATOM
      1 C1        -13.1523   -1.6552   51.3489 C.3     1  ZINC001011267435   -0.1500
      2 C2        -13.4383   -2.3040   52.7047 C.3     1  ZINC001011267435   -0.1200
      3 C3        -12.1783   -3.0113   53.2075 C.3     1  ZINC001011267435   -0.0700
      4 C4        -12.4580   -3.6447   54.5461 C.ar    1  ZINC001011267435    0.1300
      5 C5        -11.4522   -3.7143   55.4902 C.ar    1  ZINC001011267435   -0.1200
      6 C6        -11.7243   -4.3045   56.7285 C.ar    1  ZINC001011267435   -0.0800
      7 C7        -10.6775   -4.4012   57.7722 C.2     1  ZINC001011267435    0.5600
      8 O8        -10.1165   -5.4601   57.9739 O.2     1  ZINC001011267435   -0.5200
      9 N9        -10.3471   -3.3146   58.4980 N.am    1  ZINC001011267435   -0.6100
     10 C10       -11.0212   -2.0290   58.2691 C.3     1  ZINC001011267435    0.0700
     11 C11       -11.6131   -1.5426   59.5977 C.3     1  ZINC001011267435    0.1000
     12 N12       -10.5726   -1.6223   60.6325 N.am    1  ZINC001011267435   -0.6200
     13 C13       -10.2428   -0.5360   61.3589 C.2     1  ZINC001011267435    0.5300
     14 O14        -9.3824   -0.6142   62.2101 O.2     1  ZINC001011267435   -0.5300
     15 C15       -10.9430    0.7756   61.1135 C.3     1  ZINC001011267435   -0.1100
     16 H16       -12.0032    0.5941   60.9370 H       1  ZINC001011267435    0.0900
     17 C17       -10.3317    1.4587   59.8884 C.3     1  ZINC001011267435   -0.1500
     18 C18       -10.7771    1.6791   62.3370 C.3     1  ZINC001011267435   -0.0800
     19 C19       -11.5007    3.0050   62.0938 C.3     1  ZINC001011267435   -0.1500
     20 C20       -11.3751    0.9896   63.5650 C.3     1  ZINC001011267435   -0.1500
     21 C21        -9.8984   -2.9080   60.8615 C.3     1  ZINC001011267435    0.0900
     22 C22        -9.3105   -3.3958   59.5366 C.3     1  ZINC001011267435    0.1000
     23 C23       -13.0118   -4.8001   56.9542 C.ar    1  ZINC001011267435   -0.1600
     24 C24       -13.9577   -4.6886   55.9532 C.ar    1  ZINC001011267435    0.1100
     25 N25       -13.6606   -4.1200   54.8019 N.ar    1  ZINC001011267435   -0.4600
     26 H26       -12.3465   -0.9292   51.4563 H       1  ZINC001011267435    0.0600
     27 H27       -12.8568   -2.4230   50.6339 H       1  ZINC001011267435    0.0500
     28 H28       -14.0501   -1.1513   50.9907 H       1  ZINC001011267435    0.0600
     29 H29       -13.7338   -1.5363   53.4198 H       1  ZINC001011267435    0.0700
     30 H30       -14.2442   -3.0301   52.5974 H       1  ZINC001011267435    0.0600
     31 H31       -11.8855   -3.7823   52.4948 H       1  ZINC001011267435    0.0800
     32 H32       -11.3711   -2.2861   53.3104 H       1  ZINC001011267435    0.0900
     33 H33       -10.4703   -3.3192   55.2753 H       1  ZINC001011267435    0.1400
     34 H34       -10.3009   -1.2986   57.9004 H       1  ZINC001011267435    0.0800
     35 H35       -11.8198   -2.1596   57.5389 H       1  ZINC001011267435    0.1100
     36 H36       -11.9469   -0.5102   59.4934 H       1  ZINC001011267435    0.1100
     37 H37       -12.4555   -2.1756   59.8765 H       1  ZINC001011267435    0.0700
     38 H38       -10.7806    2.4436   59.7598 H       1  ZINC001011267435    0.0800
     39 H39        -9.2563    1.5653   60.0307 H       1  ZINC001011267435    0.0600
     40 H40       -10.5226    0.8538   59.0020 H       1  ZINC001011267435    0.0600
     41 H41        -9.7174    1.8694   62.5071 H       1  ZINC001011267435    0.0800
     42 H42       -11.3825    3.6487   62.9655 H       1  ZINC001011267435    0.0600
     43 H43       -11.0748    3.4962   61.2190 H       1  ZINC001011267435    0.0600
     44 H44       -12.5604    2.8147   61.9237 H       1  ZINC001011267435    0.0600
     45 H45       -10.8595    0.0449   63.7382 H       1  ZINC001011267435    0.0600
     46 H46       -11.2569    1.6332   64.4366 H       1  ZINC001011267435    0.0600
     47 H47       -12.4348    0.7992   63.3948 H       1  ZINC001011267435    0.0500
     48 H48        -9.0998   -2.7774   61.5916 H       1  ZINC001011267435    0.1000
     49 H49       -10.6188   -3.6383   61.2302 H       1  ZINC001011267435    0.0800
     50 H50        -8.9770   -4.4281   59.6424 H       1  ZINC001011267435    0.1100
     51 H51        -8.4681   -2.7637   59.2555 H       1  ZINC001011267435    0.0800
     52 H52       -13.2632   -5.2637   57.8968 H       1  ZINC001011267435    0.1500
     53 H53       -14.9550   -5.0688   56.1179 H       1  ZINC001011267435    0.1700
@<TRIPOS>BOND
     1     1     2    1
     2     1    26    1
     3     1    27    1
     4     1    28    1
     5     2     3    1
     6     2    29    1
     7     2    30    1
     8     3     4    1
     9     3    31    1
    10     3    32    1
    11     4    25   ar
    12     4     5   ar
    13     5     6   ar
    14     5    33    1
    15     6     7    1
    16     6    23   ar
    17     7     8    2
    18     7     9   am
    19     9    22    1
    20     9    10    1
    21    10    11    1
    22    10    34    1
    23    10    35    1
    24    11    12    1
    25    11    36    1
    26    11    37    1
    27    12    13   am
    28    12    21    1
    29    13    14    2
    30    13    15    1
    31    15    16    1
    32    15    17    1
    33    15    18    1
    34    17    38    1
    35    17    39    1
    36    17    40    1
    37    18    19    1
    38    18    20    1
    39    18    41    1
    40    19    42    1
    41    19    43    1
    42    19    44    1
    43    20    45    1
    44    20    46    1
    45    20    47    1
    46    21    22    1
    47    21    48    1
    48    21    49    1
    49    22    50    1
    50    22    51    1
    51    23    24   ar
    52    23    52    1
    53    24    25   ar
    54    24    53    1
@<TRIPOS>SUBSTRUCTURE
     1 ZINC001011267435        1 TEMP              0 ****  ****    0 ROOT


##########                                Name:    ZINC000951315041
##########                DOCK_Rotatable_Bonds:                   5
##########                         Heavy_Atoms:                  25
##########                    Molecular_Weight:             340.382
##########                DOCK_Rotatable_Bonds:                   5
##########                       Formal_Charge:          0.00999974
##########                     HBond_Acceptors:                   7
##########                        HBond_Donors:                   1
##########                         Heavy_Atoms:                  25
##########                          Grid_Score:          -33.727757
##########                     Grid_vdw_energy:          -33.978214
##########                      Grid_es_energy:            0.250459
##########           Internal_energy_repulsive:           10.094602

@<TRIPOS>MOLECULE
ZINC000951315041
 45 47 1 0 0
SMALL
USER_CHARGES


@<TRIPOS>ATOM
      1 C1        -10.9372   -1.4490   60.5434 C.3     1  ZINC000951315041    0.0500
      2 N2        -10.9668   -2.5722   59.6033 N.am    1  ZINC000951315041   -0.4900
      3 C3        -12.0069   -2.7018   58.7588 C.2     1  ZINC000951315041    0.1700
      4 C4        -12.0556   -3.7522   57.8652 C.2     1  ZINC000951315041   -0.2400
      5 C5        -13.1972   -3.8900   56.9420 C.2     1  ZINC000951315041    0.5800
      6 O6        -14.0866   -4.6818   57.1887 O.2     1  ZINC000951315041   -0.5200
      7 N7        -13.2549   -3.1384   55.8248 N.am    1  ZINC000951315041   -0.6000
      8 C8        -14.3858   -3.2644   54.8954 C.3     1  ZINC000951315041    0.1100
      9 C9        -13.8409   -3.5336   53.4892 C.3     1  ZINC000951315041   -0.1300
     10 C10       -12.8397   -2.4379   53.1161 C.3     1  ZINC000951315041   -0.1300
     11 C11       -11.6679   -2.4585   54.1004 C.3     1  ZINC000951315041    0.1300
     12 H12       -11.1902   -3.4379   54.0769 H       1  ZINC000951315041    0.1000
     13 N13       -10.6946   -1.4306   53.7233 N.am    1  ZINC000951315041   -0.7200
     14 C14        -9.7745   -1.6900   52.7732 C.2     1  ZINC000951315041    0.5700
     15 O15        -9.7515   -2.7773   52.2303 O.2     1  ZINC000951315041   -0.5200
     16 C16        -8.7933   -0.6521   52.3914 C.ar    1  ZINC000951315041   -0.1900
     17 C17        -8.8076    0.6032   53.0107 C.ar    1  ZINC000951315041   -0.0100
     18 C18        -7.8674    1.5394   52.6173 C.ar    1  ZINC000951315041   -0.1800
     19 C19        -6.9525    1.2083   51.6344 C.ar    1  ZINC000951315041    0.1300
     20 N20        -6.9629    0.0167   51.0676 N.ar    1  ZINC000951315041   -0.4900
     21 C21        -7.8334   -0.9093   51.4115 C.ar    1  ZINC000951315041    0.1400
     22 C22       -12.1912   -2.1730   55.5163 C.3     1  ZINC000951315041    0.1000
     23 C23       -11.0008   -4.6966   57.8413 C.2     1  ZINC000951315041    0.0100
     24 C24        -9.9603   -4.5448   58.7035 C.2     1  ZINC000951315041   -0.2300
     25 C25        -9.9513   -3.4547   59.5939 C.2     1  ZINC000951315041    0.5100
     26 O26        -9.0201   -3.3140   60.3688 O.2     1  ZINC000951315041   -0.5400
     27 H27       -10.0270   -1.4994   61.1410 H       1  ZINC000951315041    0.1100
     28 H28       -10.9563   -0.5106   59.9890 H       1  ZINC000951315041    0.0800
     29 H29       -11.8060   -1.5013   61.1993 H       1  ZINC000951315041    0.0800
     30 H30       -12.8089   -1.9789   58.7809 H       1  ZINC000951315041    0.1700
     31 H31       -15.0229   -4.0927   55.2052 H       1  ZINC000951315041    0.1000
     32 H32       -14.9618   -2.3389   54.8931 H       1  ZINC000951315041    0.0700
     33 H33       -13.3427   -4.5029   53.4716 H       1  ZINC000951315041    0.0700
     34 H34       -14.6634   -3.5337   52.7741 H       1  ZINC000951315041    0.0900
     35 H35       -12.4688   -2.6136   52.1063 H       1  ZINC000951315041    0.0800
     36 H36       -13.3322   -1.4663   53.1580 H       1  ZINC000951315041    0.0700
     37 H37       -10.7122   -0.5633   54.1574 H       1  ZINC000951315041    0.4000
     38 H38        -9.5340    0.8351   53.7756 H       1  ZINC000951315041    0.1500
     39 H39        -7.8486    2.5185   53.0729 H       1  ZINC000951315041    0.1500
     40 H40        -6.2177    1.9370   51.3255 H       1  ZINC000951315041    0.1600
     41 H41        -7.8102   -1.8732   50.9247 H       1  ZINC000951315041    0.1600
     42 H42       -12.5867   -1.1583   55.5621 H       1  ZINC000951315041    0.0700
     43 H43       -11.3793   -2.2837   56.2351 H       1  ZINC000951315041    0.0900
     44 H44       -11.0225   -5.5251   57.1489 H       1  ZINC000951315041    0.1400
     45 H45        -9.1453   -5.2535   58.7027 H       1  ZINC000951315041    0.1600
@<TRIPOS>BOND
     1     1     2    1
     2     1    27    1
     3     1    28    1
     4     1    29    1
     5     2    25   am
     6     2     3    1
     7     3     4    2
     8     3    30    1
     9     4     5    1
    10     4    23    1
    11     5     6    2
    12     5     7   am
    13     7    22    1
    14     7     8    1
    15     8     9    1
    16     8    31    1
    17     8    32    1
    18     9    10    1
    19     9    33    1
    20     9    34    1
    21    10    11    1
    22    10    35    1
    23    10    36    1
    24    11    12    1
    25    11    13    1
    26    11    22    1
    27    13    14   am
    28    13    37    1
    29    14    15    2
    30    14    16    1
    31    16    21   ar
    32    16    17   ar
    33    17    18   ar
    34    17    38    1
    35    18    19   ar
    36    18    39    1
    37    19    20   ar
    38    19    40    1
    39    20    21   ar
    40    21    41    1
    41    22    42    1
    42    22    43    1
    43    23    24    2
    44    23    44    1
    45    24    25    1
    46    24    45    1
    47    25    26    2
@<TRIPOS>SUBSTRUCTURE
     1 ZINC000951315041        1 TEMP              0 ****  ****    0 ROOT


##########                                Name:    ZINC000429196987
##########                DOCK_Rotatable_Bonds:                   7
##########                         Heavy_Atoms:                  28
##########                    Molecular_Weight:             403.505
##########                DOCK_Rotatable_Bonds:                   7
##########                       Formal_Charge:          -0.0399997
##########                     HBond_Acceptors:                   9
##########                        HBond_Donors:                   1
##########                         Heavy_Atoms:                  28
##########                          Grid_Score:          -33.725990
##########                     Grid_vdw_energy:          -32.143143
##########                      Grid_es_energy:           -1.582849
##########           Internal_energy_repulsive:           11.961381

@<TRIPOS>MOLECULE
ZINC000429196987
 53 55 1 0 0
SMALL
USER_CHARGES


@<TRIPOS>ATOM
      1 C1         -3.5841    3.3007   52.2041 C.3     1  ZINC000429196987    0.0800
      2 N2         -2.6506    3.5249   51.0975 N.am    1  ZINC000429196987   -0.6300
      3 C3         -1.8081    4.7233   51.0814 C.3     1  ZINC000429196987    0.1600
      4 C4         -0.3988    4.3517   51.4643 C.ar    1  ZINC000429196987   -0.0600
      5 C5          0.6672    4.8311   50.7262 C.ar    1  ZINC000429196987   -0.1300
      6 C6          1.9600    4.4902   51.0776 C.ar    1  ZINC000429196987   -0.0300
      7 C7          2.1869    3.6704   52.1671 C.ar    1  ZINC000429196987   -0.6600
      8 S8          3.8347    3.2355   52.6146 S.o2    1  ZINC000429196987    2.5000
      9 C9          4.0509    3.9301   54.2763 C.3     1  ZINC000429196987   -0.6500
     10 O10         3.8209    1.8155   52.6657 O.2     1  ZINC000429196987   -0.9400
     11 O11         4.6469    3.9269   51.6755 O.2     1  ZINC000429196987   -0.9400
     12 C12         1.1210    3.1921   52.9060 C.ar    1  ZINC000429196987   -0.0300
     13 C13        -0.1716    3.5361   52.5571 C.ar    1  ZINC000429196987   -0.1100
     14 C14        -2.5669    2.6288   50.0944 C.2     1  ZINC000429196987    0.7100
     15 O15        -3.2672    1.6350   50.1070 O.2     1  ZINC000429196987   -0.5800
     16 N16        -1.7069    2.8343   49.0772 N.am    1  ZINC000429196987   -0.7400
     17 C17        -1.6146    1.8593   47.9877 C.3     1  ZINC000429196987    0.1600
     18 C18        -2.4899    2.3156   46.8171 C.3     1  ZINC000429196987   -0.1300
     19 C19        -2.3421    1.3253   45.6596 C.3     1  ZINC000429196987    0.0700
     20 N20        -0.9347    1.2609   45.2457 N.3     1  ZINC000429196987   -0.4700
     21 C21        -0.7845    0.4703   44.1117 C.ar    1  ZINC000429196987    0.2500
     22 C22         0.2727    0.7006   43.2321 C.ar    1  ZINC000429196987   -0.1300
     23 C23         0.3780   -0.1150   42.1166 C.ar    1  ZINC000429196987   -0.1000
     24 C24        -0.5741   -1.1098   41.9435 C.ar    1  ZINC000429196987    0.0200
     25 N25        -1.5417   -1.2572   42.8264 N.ar    1  ZINC000429196987   -0.2200
     26 N26        -1.6423   -0.5091   43.8646 N.ar    1  ZINC000429196987   -0.2800
     27 C27        -0.0811    0.7798   46.3394 C.3     1  ZINC000429196987    0.0600
     28 C28        -0.1613    1.7536   47.5172 C.3     1  ZINC000429196987   -0.1200
     29 H29        -4.5469    3.7522   51.9644 H       1  ZINC000429196987    0.0600
     30 H30        -3.7137    2.2295   52.3588 H       1  ZINC000429196987    0.0700
     31 H31        -3.1865    3.7535   53.1124 H       1  ZINC000429196987    0.0800
     32 H32        -1.8108    5.1559   50.0809 H       1  ZINC000429196987    0.1000
     33 H33        -2.1979    5.4511   51.7930 H       1  ZINC000429196987    0.0900
     34 H34         0.4900    5.4717   49.8750 H       1  ZINC000429196987    0.1300
     35 H35         2.7929    4.8642   50.5005 H       1  ZINC000429196987    0.1400
     36 H36         3.3166    3.4914   54.9519 H       1  ZINC000429196987    0.1300
     37 H37         5.0551    3.7060   54.6360 H       1  ZINC000429196987    0.1300
     38 H38         3.9109    5.0105   54.2395 H       1  ZINC000429196987    0.1300
     39 H39         1.2982    2.5519   53.7576 H       1  ZINC000429196987    0.1400
     40 H40        -1.0043    3.1624   53.1344 H       1  ZINC000429196987    0.1400
     41 H41        -1.1490    3.6278   49.0665 H       1  ZINC000429196987    0.4000
     42 H42        -1.9550    0.8856   48.3404 H       1  ZINC000429196987    0.0900
     43 H43        -3.5321    2.3515   47.1344 H       1  ZINC000429196987    0.0800
     44 H44        -2.1738    3.3064   46.4910 H       1  ZINC000429196987    0.0700
     45 H45        -2.6714    0.3377   45.9824 H       1  ZINC000429196987    0.0600
     46 H46        -2.9530    1.6551   44.8193 H       1  ZINC000429196987    0.0900
     47 H47         0.9868    1.4901   43.4142 H       1  ZINC000429196987    0.1500
     48 H48         1.1772    0.0197   41.4028 H       1  ZINC000429196987    0.1500
     49 H49        -0.5223   -1.7632   41.0851 H       1  ZINC000429196987    0.1700
     50 H50        -0.4209   -0.2054   46.6589 H       1  ZINC000429196987    0.0500
     51 H51         0.9503    0.7133   45.9929 H       1  ZINC000429196987    0.0900
     52 H52         0.1914    2.7357   47.2021 H       1  ZINC000429196987    0.0800
     53 H53         0.4602    1.3882   48.3346 H       1  ZINC000429196987    0.0800
@<TRIPOS>BOND
     1     1     2    1
     2     1    29    1
     3     1    30    1
     4     1    31    1
     5     2     3    1
     6     2    14   am
     7     3     4    1
     8     3    32    1
     9     3    33    1
    10     4    13   ar
    11     4     5   ar
    12     5     6   ar
    13     5    34    1
    14     6     7   ar
    15     6    35    1
    16     7     8    1
    17     7    12   ar
    18     8     9    1
    19     8    10    2
    20     8    11    2
    21     9    36    1
    22     9    37    1
    23     9    38    1
    24    12    13   ar
    25    12    39    1
    26    13    40    1
    27    14    15    2
    28    14    16   am
    29    16    17    1
    30    16    41    1
    31    17    28    1
    32    17    18    1
    33    17    42    1
    34    18    19    1
    35    18    43    1
    36    18    44    1
    37    19    20    1
    38    19    45    1
    39    19    46    1
    40    20    21    1
    41    20    27    1
    42    21    26   ar
    43    21    22   ar
    44    22    23   ar
    45    22    47    1
    46    23    24   ar
    47    23    48    1
    48    24    25   ar
    49    24    49    1
    50    25    26   ar
    51    27    28    1
    52    27    50    1
    53    27    51    1
    54    28    52    1
    55    28    53    1
@<TRIPOS>SUBSTRUCTURE
     1 ZINC000429196987        1 TEMP              0 ****  ****    0 ROOT


##########                                Name:    ZINC001124460178
##########                DOCK_Rotatable_Bonds:                  12
##########                         Heavy_Atoms:                  22
##########                    Molecular_Weight:             328.479
##########                DOCK_Rotatable_Bonds:                  12
##########                       Formal_Charge:          -0.0100003
##########                     HBond_Acceptors:                   7
##########                        HBond_Donors:                   2
##########                         Heavy_Atoms:                  22
##########                          Grid_Score:          -33.714684
##########                     Grid_vdw_energy:          -31.954359
##########                      Grid_es_energy:           -1.760323
##########           Internal_energy_repulsive:           21.653116

@<TRIPOS>MOLECULE
ZINC001124460178
 50 50 1 0 0
SMALL
USER_CHARGES


@<TRIPOS>ATOM
      1 C1        -15.4437   -2.8642   59.0547 C.3     1  ZINC001124460178   -0.0700
      2 C2        -14.4022   -3.7241   58.3861 C.2     1  ZINC001124460178    0.3100
      3 N3        -14.7432   -4.7425   57.6515 N.2     1  ZINC001124460178   -0.5000
      4 S4        -13.2865   -5.4225   57.1000 S.3     1  ZINC001124460178    0.1800
      5 C5        -12.2855   -4.2746   57.9058 C.2     1  ZINC001124460178    0.3400
      6 N6        -10.9037   -4.2126   57.9013 N.pl3   1  ZINC001124460178   -0.6600
      7 C7        -10.2266   -2.9412   58.1683 C.3     1  ZINC001124460178    0.0900
      8 C8         -9.9476   -2.8170   59.6675 C.3     1  ZINC001124460178    0.0800
      9 H9        -10.8649   -2.5381   60.1860 H       1  ZINC001124460178    0.1200
     10 O10        -9.4785   -4.0697   60.1700 O.3     1  ZINC001124460178   -0.5500
     11 C11        -8.8832   -1.7430   59.9009 C.3     1  ZINC001124460178    0.0900
     12 N12        -9.4453   -0.4244   59.5980 N.am    1  ZINC001124460178   -0.6100
     13 C13       -10.2596    0.2719   60.5972 C.3     1  ZINC001124460178    0.0800
     14 C14        -9.2134    0.1479   58.4000 C.2     1  ZINC001124460178    0.5100
     15 O15        -8.5406   -0.4293   57.5723 O.2     1  ZINC001124460178   -0.5400
     16 C16        -9.7901    1.5050   58.0891 C.3     1  ZINC001124460178   -0.1400
     17 C17        -9.0457    2.1152   56.8996 C.3     1  ZINC001124460178   -0.1100
     18 C18        -7.6524    2.5635   57.3456 C.3     1  ZINC001124460178   -0.1200
     19 C19        -6.9129    3.1855   56.1594 C.3     1  ZINC001124460178   -0.1200
     20 C20        -5.5197    3.6339   56.6052 C.3     1  ZINC001124460178   -0.1000
     21 C21        -4.7797    4.2547   55.4187 C.3     1  ZINC001124460178   -0.1500
     22 C22        -5.6509    4.6701   57.7232 C.3     1  ZINC001124460178   -0.1500
     23 N23       -13.1221   -3.4665   58.5220 N.2     1  ZINC001124460178   -0.5800
     24 H24       -15.7283   -2.0521   58.3857 H       1  ZINC001124460178    0.0900
     25 H25       -16.3206   -3.4690   59.2856 H       1  ZINC001124460178    0.0900
     26 H26       -15.0353   -2.4494   59.9763 H       1  ZINC001124460178    0.0900
     27 H27       -10.3830   -5.0109   57.7212 H       1  ZINC001124460178    0.4200
     28 H28        -9.2854   -2.9084   57.6196 H       1  ZINC001124460178    0.0800
     29 H29       -10.8630   -2.1163   57.8476 H       1  ZINC001124460178    0.0900
     30 H30        -9.1249   -4.0254   61.0690 H       1  ZINC001124460178    0.3800
     31 H31        -8.5615   -1.7704   60.9420 H       1  ZINC001124460178    0.0900
     32 H32        -8.0284   -1.9315   59.2515 H       1  ZINC001124460178    0.1000
     33 H33        -9.6163    0.8915   61.2220 H       1  ZINC001124460178    0.0600
     34 H34       -10.9927    0.9018   60.0933 H       1  ZINC001124460178    0.0800
     35 H35       -10.7752   -0.4595   61.2193 H       1  ZINC001124460178    0.0800
     36 H36       -10.8470    1.4030   57.8426 H       1  ZINC001124460178    0.0900
     37 H37        -9.6807    2.1541   58.9579 H       1  ZINC001124460178    0.0900
     38 H38        -8.9520    1.3706   56.1090 H       1  ZINC001124460178    0.0700
     39 H39        -9.6015    2.9747   56.5253 H       1  ZINC001124460178    0.0700
     40 H40        -7.7459    3.3010   58.1427 H       1  ZINC001124460178    0.0600
     41 H41        -7.0933    1.7022   57.7112 H       1  ZINC001124460178    0.0600
     42 H42        -6.8195    2.4480   55.3623 H       1  ZINC001124460178    0.0600
     43 H43        -7.4721    4.0468   55.7938 H       1  ZINC001124460178    0.0600
     44 H44        -4.9609    2.7727   56.9717 H       1  ZINC001124460178    0.0700
     45 H45        -5.3386    5.1158   55.0522 H       1  ZINC001124460178    0.0500
     46 H46        -3.7871    4.5741   55.7363 H       1  ZINC001124460178    0.0500
     47 H47        -4.6862    3.5165   54.6222 H       1  ZINC001124460178    0.0500
     48 H48        -6.1781    4.2278   58.5685 H       1  ZINC001124460178    0.0600
     49 H49        -4.6583    4.9895   58.0409 H       1  ZINC001124460178    0.0500
     50 H50        -6.2097    5.5311   57.3568 H       1  ZINC001124460178    0.0500
@<TRIPOS>BOND
     1     1     2    1
     2     1    24    1
     3     1    25    1
     4     1    26    1
     5     2    23    1
     6     2     3    2
     7     3     4    1
     8     4     5    1
     9     5     6    1
    10     5    23    2
    11     6     7    1
    12     6    27    1
    13     7     8    1
    14     7    28    1
    15     7    29    1
    16     8     9    1
    17     8    10    1
    18     8    11    1
    19    10    30    1
    20    11    12    1
    21    11    31    1
    22    11    32    1
    23    12    13    1
    24    12    14   am
    25    13    33    1
    26    13    34    1
    27    13    35    1
    28    14    15    2
    29    14    16    1
    30    16    17    1
    31    16    36    1
    32    16    37    1
    33    17    18    1
    34    17    38    1
    35    17    39    1
    36    18    19    1
    37    18    40    1
    38    18    41    1
    39    19    20    1
    40    19    42    1
    41    19    43    1
    42    20    21    1
    43    20    22    1
    44    20    44    1
    45    21    45    1
    46    21    46    1
    47    21    47    1
    48    22    48    1
    49    22    49    1
    50    22    50    1
@<TRIPOS>SUBSTRUCTURE
     1 ZINC001124460178        1 TEMP              0 ****  ****    0 ROOT


##########                                Name:    ZINC001060578637
##########                DOCK_Rotatable_Bonds:                  10
##########                         Heavy_Atoms:                  25
##########                    Molecular_Weight:             345.401
##########                DOCK_Rotatable_Bonds:                  10
##########                       Formal_Charge:          -0.0400001
##########                     HBond_Acceptors:                   8
##########                        HBond_Donors:                   3
##########                         Heavy_Atoms:                  25
##########                          Grid_Score:          -33.709118
##########                     Grid_vdw_energy:          -30.319983
##########                      Grid_es_energy:           -3.389136
##########           Internal_energy_repulsive:           10.920909

@<TRIPOS>MOLECULE
ZINC001060578637
 48 49 1 0 0
SMALL
USER_CHARGES


@<TRIPOS>ATOM
      1 C1        -16.6282   -2.5763   54.5069 C.3     1  ZINC001060578637   -0.1500
      2 C2        -15.6822   -3.4976   53.7343 C.3     1  ZINC001060578637   -0.1300
      3 C3        -14.2430   -3.0054   53.8996 C.3     1  ZINC001060578637    0.0700
      4 H4        -14.2500   -1.9698   54.2398 H       1  ZINC001060578637    0.0900
      5 O5        -13.5636   -3.0901   52.6453 O.3     1  ZINC001060578637   -0.3600
      6 C6        -12.4540   -2.1977   52.5237 C.3     1  ZINC001060578637    0.0300
      7 C7        -13.5323   -3.8628   54.9147 C.2     1  ZINC001060578637    0.5000
      8 O8        -12.5434   -4.4878   54.5948 O.2     1  ZINC001060578637   -0.5200
      9 N9        -13.9957   -3.9352   56.1783 N.am    1  ZINC001060578637   -0.7300
     10 C10       -13.3038   -4.7675   57.1657 C.3     1  ZINC001060578637    0.1600
     11 C11       -12.2596   -3.9434   57.8739 C.ar    1  ZINC001060578637   -0.1100
     12 C12       -12.5553   -2.6568   58.2837 C.ar    1  ZINC001060578637   -0.0900
     13 C13       -11.5975   -1.9009   58.9334 C.ar    1  ZINC001060578637   -0.1100
     14 C14       -10.3440   -2.4319   59.1737 C.ar    1  ZINC001060578637   -0.0900
     15 C15        -9.2995   -1.6078   59.8815 C.3     1  ZINC001060578637    0.1800
     16 H16        -8.3095   -2.0038   59.6550 H       1  ZINC001060578637    0.1000
     17 C17        -9.5395   -1.6676   61.3913 C.3     1  ZINC001060578637   -0.1600
     18 N18        -9.3847   -0.2173   59.4282 N.am    1  ZINC001060578637   -0.7000
     19 C19        -9.0960    0.0934   58.1489 C.2     1  ZINC001060578637    0.6100
     20 O20        -8.7632   -0.7802   57.3713 O.2     1  ZINC001060578637   -0.5300
     21 C21        -9.1835    1.4926   57.6923 C.2     1  ZINC001060578637    0.1200
     22 N22        -9.1329    1.9147   56.4469 N.2     1  ZINC001060578637   -0.2400
     23 N23        -9.2411    3.1958   56.4243 N.2     1  ZINC001060578637   -0.2900
     24 C24        -9.3657    3.6559   57.6453 C.2     1  ZINC001060578637    0.1900
     25 N25        -9.3389    2.6012   58.4840 N.pl3   1  ZINC001060578637   -0.5500
     26 C26       -10.0487   -3.7191   58.7651 C.ar    1  ZINC001060578637   -0.1100
     27 C27       -11.0077   -4.4763   58.1189 C.ar    1  ZINC001060578637   -0.0900
     28 H28       -17.6499   -2.9448   54.4147 H       1  ZINC001060578637    0.0600
     29 H29       -16.3414   -2.5601   55.5584 H       1  ZINC001060578637    0.0500
     30 H30       -16.5675   -1.5677   54.0981 H       1  ZINC001060578637    0.0600
     31 H31       -15.7659   -4.5126   54.1226 H       1  ZINC001060578637    0.0800
     32 H32       -15.9498   -3.4896   52.6776 H       1  ZINC001060578637    0.0800
     33 H33       -11.9457   -2.3770   51.5763 H       1  ZINC001060578637    0.0900
     34 H34       -12.8107   -1.1682   52.5556 H       1  ZINC001060578637    0.0500
     35 H35       -11.7596   -2.3674   53.3465 H       1  ZINC001060578637    0.0400
     36 H36       -14.7873   -3.4364   56.4339 H       1  ZINC001060578637    0.4000
     37 H37       -14.0239   -5.1439   57.8922 H       1  ZINC001060578637    0.0800
     38 H38       -12.8240   -5.6064   56.6615 H       1  ZINC001060578637    0.0800
     39 H39       -13.5346   -2.2420   58.0961 H       1  ZINC001060578637    0.1300
     40 H40       -11.8283   -0.8954   59.2529 H       1  ZINC001060578637    0.1300
     41 H41       -10.5295   -1.2718   61.6177 H       1  ZINC001060578637    0.0600
     42 H42        -9.4761   -2.7022   61.7286 H       1  ZINC001060578637    0.0700
     43 H43        -8.7841   -1.0716   61.9032 H       1  ZINC001060578637    0.0700
     44 H44        -9.6490    0.4797   60.0488 H       1  ZINC001060578637    0.4100
     45 H45        -9.4743    4.6926   57.9279 H       1  ZINC001060578637    0.2300
     46 H46        -9.4094    2.6226   59.4512 H       1  ZINC001060578637    0.4400
     47 H47        -9.0695   -4.1340   58.9532 H       1  ZINC001060578637    0.1300
     48 H48       -10.7770   -5.4819   57.7996 H       1  ZINC001060578637    0.1300
@<TRIPOS>BOND
     1     1     2    1
     2     1    28    1
     3     1    29    1
     4     1    30    1
     5     2     3    1
     6     2    31    1
     7     2    32    1
     8     3     4    1
     9     3     5    1
    10     3     7    1
    11     5     6    1
    12     6    33    1
    13     6    34    1
    14     6    35    1
    15     7     8    2
    16     7     9   am
    17     9    10    1
    18     9    36    1
    19    10    11    1
    20    10    37    1
    21    10    38    1
    22    11    27   ar
    23    11    12   ar
    24    12    13   ar
    25    12    39    1
    26    13    14   ar
    27    13    40    1
    28    14    15    1
    29    14    26   ar
    30    15    16    1
    31    15    17    1
    32    15    18    1
    33    17    41    1
    34    17    42    1
    35    17    43    1
    36    18    19   am
    37    18    44    1
    38    19    20    2
    39    19    21    1
    40    21    25    1
    41    21    22    2
    42    22    23    1
    43    23    24    2
    44    24    25    1
    45    24    45    1
    46    25    46    1
    47    26    27   ar
    48    26    47    1
    49    27    48    1
@<TRIPOS>SUBSTRUCTURE
     1 ZINC001060578637        1 TEMP              0 ****  ****    0 ROOT


##########                                Name:    ZINC000031496632
##########                DOCK_Rotatable_Bonds:                   8
##########                         Heavy_Atoms:                  30
##########                    Molecular_Weight:             423.539
##########                DOCK_Rotatable_Bonds:                   8
##########                       Formal_Charge:          -0.0100009
##########                     HBond_Acceptors:                   8
##########                        HBond_Donors:                   1
##########                         Heavy_Atoms:                  30
##########                          Grid_Score:          -33.702957
##########                     Grid_vdw_energy:          -34.277653
##########                      Grid_es_energy:            0.574697
##########           Internal_energy_repulsive:            9.788362

@<TRIPOS>MOLECULE
ZINC000031496632
 55 58 1 0 0
SMALL
USER_CHARGES


@<TRIPOS>ATOM
      1 C1         -2.0385    3.0658   48.3093 C.3     1  ZINC000031496632   -0.1600
      2 C2         -2.0730    2.0106   49.4166 C.3     1  ZINC000031496632    0.1600
      3 C3         -0.6777    1.8672   50.0279 C.3     1  ZINC000031496632   -0.1600
      4 N4         -3.0209    2.4227   50.4547 N.pl3   1  ZINC000031496632   -0.3900
      5 N5         -2.7515    3.3310   51.4831 N.2     1  ZINC000031496632   -0.2300
      6 C6         -3.8035    3.4794   52.2362 C.2     1  ZINC000031496632    0.0800
      7 C7         -4.8575    2.6265   51.6981 C.ar    1  ZINC000031496632   -0.2100
      8 C8         -6.1819    2.3631   52.0662 C.ar    1  ZINC000031496632    0.0100
      9 C9         -6.9054    1.4661   51.2959 C.ar    1  ZINC000031496632    0.0500
     10 N10        -8.2351    1.1671   51.6202 N.am    1  ZINC000031496632   -0.6600
     11 C11        -8.5327    0.0108   52.2453 C.2     1  ZINC000031496632    0.5500
     12 O12        -7.6468   -0.7732   52.5280 O.2     1  ZINC000031496632   -0.4900
     13 C13        -9.9314   -0.3037   52.5864 C.ar    1  ZINC000031496632   -0.1300
     14 C14       -10.5431   -1.4455   52.0627 C.ar    1  ZINC000031496632   -0.0600
     15 C15       -11.8511   -1.7339   52.3854 C.ar    1  ZINC000031496632   -0.1400
     16 C16       -12.5660   -0.8969   53.2277 C.ar    1  ZINC000031496632   -0.0600
     17 C17       -11.9772    0.2348   53.7530 C.ar    1  ZINC000031496632   -0.1500
     18 C18       -10.6565    0.5394   53.4447 C.ar    1  ZINC000031496632   -0.0600
     19 S19        -9.9010    1.9836   54.1143 S.3     1  ZINC000031496632    0.0900
     20 C20       -10.3043    1.8740   55.8795 C.3     1  ZINC000031496632   -0.2000
     21 C21        -9.5442    0.7292   56.4982 C.2     1  ZINC000031496632    0.5500
     22 O22        -8.3575    0.6023   56.2826 O.2     1  ZINC000031496632   -0.5200
     23 N23       -10.1834   -0.1537   57.2909 N.am    1  ZINC000031496632   -0.6200
     24 C24       -11.6141   -0.1236   57.6278 C.3     1  ZINC000031496632    0.1000
     25 C25       -11.8862   -1.3086   58.5781 C.3     1  ZINC000031496632   -0.1300
     26 C26       -10.4845   -1.6056   59.1734 C.3     1  ZINC000031496632   -0.1300
     27 C27        -9.5648   -1.3134   57.9587 C.3     1  ZINC000031496632    0.1000
     28 C28        -6.2971    0.8649   50.1952 C.ar    1  ZINC000031496632    0.1600
     29 N29        -5.0510    1.1289   49.8702 N.ar    1  ZINC000031496632   -0.4900
     30 C30        -4.3138    1.9838   50.5681 C.ar    1  ZINC000031496632    0.3000
     31 H31        -1.3331    2.7593   47.5369 H       1  ZINC000031496632    0.0800
     32 H32        -3.0325    3.1680   47.8737 H       1  ZINC000031496632    0.0600
     33 H33        -1.7255    4.0222   48.7282 H       1  ZINC000031496632    0.0700
     34 H34        -2.3860    1.0543   48.9975 H       1  ZINC000031496632    0.1100
     35 H35         0.0276    1.5607   49.2555 H       1  ZINC000031496632    0.0800
     36 H36        -0.3646    2.8236   50.4469 H       1  ZINC000031496632    0.0700
     37 H37        -0.7022    1.1155   50.8168 H       1  ZINC000031496632    0.0600
     38 H38        -3.8814    4.1185   53.1034 H       1  ZINC000031496632    0.2000
     39 H39        -6.6267    2.8439   52.9249 H       1  ZINC000031496632    0.1500
     40 H40        -8.9417    1.7923   51.3947 H       1  ZINC000031496632    0.4100
     41 H41        -9.9913   -2.1010   51.4054 H       1  ZINC000031496632    0.1300
     42 H42       -12.3221   -2.6171   51.9796 H       1  ZINC000031496632    0.1300
     43 H43       -13.5910   -1.1319   53.4741 H       1  ZINC000031496632    0.1300
     44 H44       -12.5415    0.8820   54.4080 H       1  ZINC000031496632    0.1300
     45 H45       -10.0258    2.8045   56.3741 H       1  ZINC000031496632    0.1100
     46 H46       -11.3747    1.7057   55.9978 H       1  ZINC000031496632    0.1100
     47 H47       -11.8579    0.8147   58.1261 H       1  ZINC000031496632    0.0700
     48 H48       -12.2106   -0.2304   56.7218 H       1  ZINC000031496632    0.0700
     49 H49       -12.5855   -1.0208   59.3632 H       1  ZINC000031496632    0.0900
     50 H50       -12.2601   -2.1695   58.0238 H       1  ZINC000031496632    0.0800
     51 H51       -10.2634   -0.9365   60.0050 H       1  ZINC000031496632    0.0800
     52 H52       -10.4035   -2.6483   59.4806 H       1  ZINC000031496632    0.0900
     53 H53        -9.5365   -2.1729   57.2890 H       1  ZINC000031496632    0.0700
     54 H54        -8.5596   -1.0609   58.2961 H       1  ZINC000031496632    0.0800
     55 H55        -6.8623    0.1663   49.5961 H       1  ZINC000031496632    0.1700
@<TRIPOS>BOND
     1     1     2    1
     2     1    31    1
     3     1    32    1
     4     1    33    1
     5     2     3    1
     6     2     4    1
     7     2    34    1
     8     3    35    1
     9     3    36    1
    10     3    37    1
    11     4    30    1
    12     4     5    1
    13     5     6    2
    14     6     7    1
    15     6    38    1
    16     7    30   ar
    17     7     8   ar
    18     8     9   ar
    19     8    39    1
    20     9    10    1
    21     9    28   ar
    22    10    11   am
    23    10    40    1
    24    11    12    2
    25    11    13    1
    26    13    18   ar
    27    13    14   ar
    28    14    15   ar
    29    14    41    1
    30    15    16   ar
    31    15    42    1
    32    16    17   ar
    33    16    43    1
    34    17    18   ar
    35    17    44    1
    36    18    19    1
    37    19    20    1
    38    20    21    1
    39    20    45    1
    40    20    46    1
    41    21    22    2
    42    21    23   am
    43    23    27    1
    44    23    24    1
    45    24    25    1
    46    24    47    1
    47    24    48    1
    48    25    26    1
    49    25    49    1
    50    25    50    1
    51    26    27    1
    52    26    51    1
    53    26    52    1
    54    27    53    1
    55    27    54    1
    56    28    29   ar
    57    28    55    1
    58    29    30   ar
@<TRIPOS>SUBSTRUCTURE
     1 ZINC000031496632        1 TEMP              0 ****  ****    0 ROOT


##########                                Name:    ZINC000995593866
##########                DOCK_Rotatable_Bonds:                   7
##########                         Heavy_Atoms:                  24
##########                    Molecular_Weight:             342.389
##########                DOCK_Rotatable_Bonds:                   7
##########                       Formal_Charge:                0.03
##########                     HBond_Acceptors:                   8
##########                        HBond_Donors:                   1
##########                         Heavy_Atoms:                  24
##########                          Grid_Score:          -33.699490
##########                     Grid_vdw_energy:          -32.716515
##########                      Grid_es_energy:           -0.982975
##########           Internal_energy_repulsive:           10.458193

@<TRIPOS>MOLECULE
ZINC000995593866
 48 50 1 0 0
SMALL
USER_CHARGES


@<TRIPOS>ATOM
      1 C1         -9.8610    0.0466   56.9233 C.3     1  ZINC000995593866   -0.1400
      2 C2        -10.8400   -0.3480   58.0310 C.3     1  ZINC000995593866   -0.0800
      3 C3        -11.3989    0.9011   58.7153 C.3     1  ZINC000995593866   -0.1400
      4 C4        -11.9870   -1.2049   57.4534 C.3     1  ZINC000995593866    0.1200
      5 N5        -11.5566   -2.6048   57.6765 N.am    1  ZINC000995593866   -0.6300
      6 C6        -11.7020   -3.6567   56.8465 C.2     1  ZINC000995593866    0.5400
      7 O7        -11.2918   -4.7497   57.1752 O.2     1  ZINC000995593866   -0.5300
      8 C8        -12.3743   -3.4747   55.5102 C.3     1  ZINC000995593866   -0.1300
      9 C9        -11.3142   -3.4318   54.4077 C.3     1  ZINC000995593866   -0.1000
     10 C10       -11.7774   -4.0606   53.0829 C.3     1  ZINC000995593866   -0.1300
     11 C11       -11.0532   -2.9051   52.3722 C.3     1  ZINC000995593866   -0.1400
     12 C12       -11.2575   -2.0894   53.6597 C.3     1  ZINC000995593866   -0.1400
     13 C13       -10.9303   -2.5861   59.0189 C.3     1  ZINC000995593866    0.1100
     14 C14       -10.1432   -1.2587   59.0632 C.3     1  ZINC000995593866    0.0800
     15 H15        -9.1036   -1.4250   58.7812 H       1  ZINC000995593866    0.0700
     16 N16       -10.2187   -0.6647   60.4047 N.3     1  ZINC000995593866   -0.6800
     17 C17        -9.4476   -1.4543   61.3742 C.3     1  ZINC000995593866    0.1500
     18 C18        -9.4184   -0.7349   62.6980 C.2     1  ZINC000995593866    0.1900
     19 N19        -8.4821   -0.8193   63.6121 N.2     1  ZINC000995593866   -0.4300
     20 C20        -8.8780   -0.0110   64.6117 C.2     1  ZINC000995593866    0.0900
     21 C21        -8.1397    0.2401   65.9012 C.3     1  ZINC000995593866    0.3800
     22 F22        -8.4281    1.5299   66.3600 F       1  ZINC000995593866   -0.1800
     23 F23        -8.5424   -0.6966   66.8591 F       1  ZINC000995593866   -0.1700
     24 N24       -10.0138    0.5137   64.2609 N.2     1  ZINC000995593866   -0.3400
     25 O25       -10.3390    0.1154   63.1623 O.3     1  ZINC000995593866    0.1000
     26 H26        -9.5010   -0.8507   56.4200 H       1  ZINC000995593866    0.0600
     27 H27       -10.3672    0.6890   56.2029 H       1  ZINC000995593866    0.0600
     28 H28        -9.0173    0.5826   57.3581 H       1  ZINC000995593866    0.0600
     29 H29       -11.9100    1.5210   57.9787 H       1  ZINC000995593866    0.0700
     30 H30       -12.1033    0.6051   59.4927 H       1  ZINC000995593866    0.0700
     31 H31       -10.5814    1.4672   59.1620 H       1  ZINC000995593866    0.0600
     32 H32       -12.9168   -1.0037   57.9854 H       1  ZINC000995593866    0.0800
     33 H33       -12.1078   -1.0097   56.3878 H       1  ZINC000995593866    0.0900
     34 H34       -13.0535   -4.3077   55.3288 H       1  ZINC000995593866    0.0900
     35 H35       -12.9363   -2.5408   55.5103 H       1  ZINC000995593866    0.0900
     36 H36       -10.3397   -3.7860   54.7435 H       1  ZINC000995593866    0.1000
     37 H37       -11.3374   -5.0383   52.8864 H       1  ZINC000995593866    0.0700
     38 H38       -12.8589   -4.0470   52.9478 H       1  ZINC000995593866    0.0800
     39 H39       -10.0072   -3.1161   52.1503 H       1  ZINC000995593866    0.0800
     40 H40       -11.5977   -2.5104   51.5143 H       1  ZINC000995593866    0.0700
     41 H41       -12.1968   -1.5369   53.6821 H       1  ZINC000995593866    0.0800
     42 H42       -10.3978   -1.4756   53.9287 H       1  ZINC000995593866    0.0700
     43 H43       -11.6951   -2.6007   59.7954 H       1  ZINC000995593866    0.0900
     44 H44       -10.2539   -3.4331   59.1345 H       1  ZINC000995593866    0.0800
     45 H45        -9.9095    0.2955   60.3929 H       1  ZINC000995593866    0.3600
     46 H46        -9.9152   -2.4307   61.5015 H       1  ZINC000995593866    0.1200
     47 H47        -8.4290   -1.5842   61.0087 H       1  ZINC000995593866    0.0800
     48 H48        -7.0673    0.1467   65.7300 H       1  ZINC000995593866    0.1500
@<TRIPOS>BOND
     1     1     2    1
     2     1    26    1
     3     1    27    1
     4     1    28    1
     5     2    14    1
     6     2     3    1
     7     2     4    1
     8     3    29    1
     9     3    30    1
    10     3    31    1
    11     4     5    1
    12     4    32    1
    13     4    33    1
    14     5     6   am
    15     5    13    1
    16     6     7    2
    17     6     8    1
    18     8     9    1
    19     8    34    1
    20     8    35    1
    21     9    12    1
    22     9    10    1
    23     9    36    1
    24    10    11    1
    25    10    37    1
    26    10    38    1
    27    11    12    1
    28    11    39    1
    29    11    40    1
    30    12    41    1
    31    12    42    1
    32    13    14    1
    33    13    43    1
    34    13    44    1
    35    14    15    1
    36    14    16    1
    37    16    17    1
    38    16    45    1
    39    17    18    1
    40    17    46    1
    41    17    47    1
    42    18    25    1
    43    18    19    2
    44    19    20    1
    45    20    21    1
    46    20    24    2
    47    21    22    1
    48    21    23    1
    49    21    48    1
    50    24    25    1
@<TRIPOS>SUBSTRUCTURE
     1 ZINC000995593866        1 TEMP              0 ****  ****    0 ROOT


##########                                Name:    ZINC000409064708
##########                DOCK_Rotatable_Bonds:                   8
##########                         Heavy_Atoms:                  29
##########                    Molecular_Weight:             415.442
##########                DOCK_Rotatable_Bonds:                   8
##########                       Formal_Charge:                0.03
##########                     HBond_Acceptors:                   8
##########                        HBond_Donors:                   0
##########                         Heavy_Atoms:                  29
##########                          Grid_Score:          -33.692253
##########                     Grid_vdw_energy:          -33.386040
##########                      Grid_es_energy:           -0.306214
##########           Internal_energy_repulsive:           18.705086

@<TRIPOS>MOLECULE
ZINC000409064708
 47 49 1 0 0
SMALL
USER_CHARGES


@<TRIPOS>ATOM
      1 C1        -13.4271    0.3447   50.9669 C.3     1  ZINC000409064708    0.0400
      2 O2        -12.6181   -0.7976   51.3529 O.3     1  ZINC000409064708   -0.3500
      3 C3        -12.8201   -1.3002   52.5810 C.2     1  ZINC000409064708    0.4600
      4 O4        -13.7030   -0.8580   53.2772 O.2     1  ZINC000409064708   -0.4900
      5 C5        -11.9454   -2.4162   53.0916 C.3     1  ZINC000409064708    0.1400
      6 H6        -12.5164   -3.3445   53.1131 H       1  ZINC000409064708    0.1500
      7 C7        -10.7378   -2.5816   52.1669 C.3     1  ZINC000409064708   -0.1600
      8 N8        -11.4842   -2.0951   54.4446 N.am    1  ZINC000409064708   -0.5600
      9 C9        -10.9362   -0.9025   54.7043 C.2     1  ZINC000409064708    0.5400
     10 O10       -10.7624    0.0031   53.9112 O.2     1  ZINC000409064708   -0.4200
     11 S11       -10.5127   -0.8944   56.4253 S.3     1  ZINC000409064708   -0.0100
     12 C12       -11.1080   -2.5394   56.7251 C.2     1  ZINC000409064708   -0.2400
     13 C13       -11.1032   -3.2288   57.8941 C.2     1  ZINC000409064708    0.0900
     14 C14       -10.5562   -2.6108   59.1087 C.ar    1  ZINC000409064708   -0.1400
     15 C15        -9.4418   -3.1738   59.7428 C.ar    1  ZINC000409064708    0.0000
     16 C16        -8.9331   -2.5903   60.8812 C.ar    1  ZINC000409064708   -0.1600
     17 C17        -9.5240   -1.4446   61.4017 C.ar    1  ZINC000409064708    0.1600
     18 O18        -9.0182   -0.8733   62.5246 O.3     1  ZINC000409064708   -0.3000
     19 C19        -9.7494    0.2209   63.0816 C.3     1  ZINC000409064708    0.1000
     20 C20        -9.1411    0.6101   64.4043 C.ar    1  ZINC000409064708   -0.0700
     21 C21        -8.5114   -0.3431   65.1823 C.ar    1  ZINC000409064708   -0.1000
     22 C22        -7.9529    0.0125   66.3962 C.ar    1  ZINC000409064708   -0.0900
     23 C23        -8.0236    1.3216   66.8327 C.ar    1  ZINC000409064708   -0.1400
     24 C24        -8.6538    2.2776   66.0539 C.ar    1  ZINC000409064708    0.1000
     25 F25        -8.7236    3.5579   66.4797 F       1  ZINC000409064708   -0.1400
     26 C26        -9.2080    1.9214   64.8363 C.ar    1  ZINC000409064708   -0.1300
     27 C27       -10.6304   -0.8816   60.7764 C.ar    1  ZINC000409064708   -0.2200
     28 C28       -11.1435   -1.4531   59.6339 C.ar    1  ZINC000409064708   -0.0400
     29 C29       -11.6115   -2.9800   55.4192 C.2     1  ZINC000409064708    0.5600
     30 O30       -12.1028   -4.0797   55.2446 O.2     1  ZINC000409064708   -0.4600
     31 H31       -14.4818    0.0713   51.0017 H       1  ZINC000409064708    0.0700
     32 H32       -13.2428    1.1697   51.6549 H       1  ZINC000409064708    0.0700
     33 H33       -13.1644    0.6505   49.9542 H       1  ZINC000409064708    0.1100
     34 H34       -11.0810   -2.8205   51.1603 H       1  ZINC000409064708    0.1000
     35 H35       -10.1668   -1.6533   52.1453 H       1  ZINC000409064708    0.0800
     36 H36       -10.1052   -3.3887   52.5362 H       1  ZINC000409064708    0.0800
     37 H37       -11.5017   -4.2319   57.9311 H       1  ZINC000409064708    0.1600
     38 H38        -8.9824   -4.0643   59.3397 H       1  ZINC000409064708    0.1300
     39 H39        -8.0736   -3.0236   61.3710 H       1  ZINC000409064708    0.1400
     40 H40        -9.7089    1.0698   62.3992 H       1  ZINC000409064708    0.0800
     41 H41       -10.7875   -0.0751   63.2322 H       1  ZINC000409064708    0.0800
     42 H42        -8.4560   -1.3666   64.8421 H       1  ZINC000409064708    0.1300
     43 H43        -7.4615   -0.7332   67.0035 H       1  ZINC000409064708    0.1400
     44 H44        -7.5879    1.5991   67.7812 H       1  ZINC000409064708    0.1400
     45 H45        -9.6994    2.6662   64.2278 H       1  ZINC000409064708    0.1400
     46 H46       -11.0857    0.0083   61.1851 H       1  ZINC000409064708    0.1300
     47 H47       -12.0032   -1.0148   59.1488 H       1  ZINC000409064708    0.1300
@<TRIPOS>BOND
     1     1     2    1
     2     1    31    1
     3     1    32    1
     4     1    33    1
     5     2     3    1
     6     3     4    2
     7     3     5    1
     8     5     6    1
     9     5     7    1
    10     5     8    1
    11     7    34    1
    12     7    35    1
    13     7    36    1
    14     8    29   am
    15     8     9   am
    16     9    10    2
    17     9    11    1
    18    11    12    1
    19    12    13    2
    20    12    29    1
    21    13    14    1
    22    13    37    1
    23    14    28   ar
    24    14    15   ar
    25    15    16   ar
    26    15    38    1
    27    16    17   ar
    28    16    39    1
    29    17    18    1
    30    17    27   ar
    31    18    19    1
    32    19    20    1
    33    19    40    1
    34    19    41    1
    35    20    26   ar
    36    20    21   ar
    37    21    22   ar
    38    21    42    1
    39    22    23   ar
    40    22    43    1
    41    23    24   ar
    42    23    44    1
    43    24    25    1
    44    24    26   ar
    45    26    45    1
    46    27    28   ar
    47    27    46    1
    48    28    47    1
    49    29    30    2
@<TRIPOS>SUBSTRUCTURE
     1 ZINC000409064708        1 TEMP              0 ****  ****    0 ROOT


##########                                Name:    ZINC000182044395
##########                DOCK_Rotatable_Bonds:                   8
##########                         Heavy_Atoms:                  28
##########                    Molecular_Weight:             398.889
##########                DOCK_Rotatable_Bonds:                   8
##########                       Formal_Charge:          -0.0399999
##########                     HBond_Acceptors:                   6
##########                        HBond_Donors:                   2
##########                         Heavy_Atoms:                  28
##########                          Grid_Score:          -33.681263
##########                     Grid_vdw_energy:          -31.999683
##########                      Grid_es_energy:           -1.681579
##########           Internal_energy_repulsive:           16.421978

@<TRIPOS>MOLECULE
ZINC000182044395
 51 53 1 0 0
SMALL
USER_CHARGES


@<TRIPOS>ATOM
      1 C1         -8.5088    1.3631   57.1819 C.3     1  ZINC000182044395   -0.1800
      2 C2         -9.1128    2.1914   56.0461 C.3     1  ZINC000182044395    0.0800
      3 N3         -8.7459    1.5960   54.7588 N.pl3   1  ZINC000182044395   -0.4800
      4 C4         -7.7658    2.1653   54.0453 C.2     1  ZINC000182044395    0.2500
      5 C5         -7.3604    1.6671   52.8244 C.2     1  ZINC000182044395   -0.3500
      6 C6         -6.2791    2.3216   52.0714 C.2     1  ZINC000182044395    0.5900
      7 O7         -6.5181    2.8587   51.0065 O.2     1  ZINC000182044395   -0.5600
      8 N8         -5.0235    2.3260   52.5615 N.am    1  ZINC000182044395   -0.7200
      9 C9         -3.9468    2.9777   51.8117 C.3     1  ZINC000182044395    0.1100
     10 H10        -4.3680    3.7502   51.1684 H       1  ZINC000182044395    0.0900
     11 C11        -2.9561    3.6126   52.7896 C.3     1  ZINC000182044395   -0.1600
     12 C12        -3.2218    1.9389   50.9536 C.3     1  ZINC000182044395    0.1100
     13 H13        -2.2828    1.6629   51.4335 H       1  ZINC000182044395    0.1100
     14 O14        -4.0443    0.7788   50.8139 O.3     1  ZINC000182044395   -0.5500
     15 C15        -2.9342    2.5297   49.5719 C.3     1  ZINC000182044395   -0.1100
     16 C16        -1.7874    1.7864   48.9366 C.ar    1  ZINC000182044395   -0.0800
     17 C17        -1.9615    1.1587   47.7173 C.ar    1  ZINC000182044395   -0.1000
     18 C18        -0.9097    0.4766   47.1348 C.ar    1  ZINC000182044395   -0.1200
     19 C19         0.3162    0.4229   47.7710 C.ar    1  ZINC000182044395   -0.1200
     20 C20         0.4890    1.0465   48.9925 C.ar    1  ZINC000182044395   -0.1200
     21 C21        -0.5617    1.7320   49.5733 C.ar    1  ZINC000182044395   -0.1200
     22 C22        -8.0315    0.4739   52.2850 C.2     1  ZINC000182044395    0.4400
     23 O23        -7.7137   -0.0014   51.2089 O.2     1  ZINC000182044395   -0.4900
     24 C24        -9.1014   -0.1255   53.1043 C.ar    1  ZINC000182044395   -0.1800
     25 C25        -9.7884   -1.2607   52.6751 C.ar    1  ZINC000182044395   -0.0200
     26 C26       -10.7873   -1.7907   53.4636 C.ar    1  ZINC000182044395   -0.0700
     27 Cl27      -11.6475   -3.2033   52.9360 Cl      1  ZINC000182044395   -0.0500
     28 C28       -11.1078   -1.1996   54.6785 C.ar    1  ZINC000182044395   -0.0500
     29 C29       -10.4364   -0.0782   55.1142 C.ar    1  ZINC000182044395   -0.1600
     30 C30        -9.4243    0.4741   54.3335 C.ar    1  ZINC000182044395    0.1900
     31 H31        -7.4232    1.3495   57.0840 H       1  ZINC000182044395    0.0700
     32 H32        -8.7817    1.8061   58.1397 H       1  ZINC000182044395    0.0800
     33 H33        -8.8909    0.3436   57.1310 H       1  ZINC000182044395    0.0700
     34 H34        -8.7306    3.2110   56.0970 H       1  ZINC000182044395    0.1000
     35 H35       -10.1983    2.2050   56.1440 H       1  ZINC000182044395    0.1100
     36 H36        -7.2762    3.0438   54.4390 H       1  ZINC000182044395    0.1800
     37 H37        -4.8329    1.8978   53.4107 H       1  ZINC000182044395    0.4100
     38 H38        -3.4726    4.3526   53.4008 H       1  ZINC000182044395    0.0600
     39 H39        -2.5348    2.8400   53.4328 H       1  ZINC000182044395    0.0600
     40 H40        -2.1550    4.0974   52.2316 H       1  ZINC000182044395    0.0600
     41 H41        -4.4368    0.4727   51.6430 H       1  ZINC000182044395    0.3700
     42 H42        -2.6723    3.5828   49.6744 H       1  ZINC000182044395    0.0800
     43 H43        -3.8206    2.4350   48.9446 H       1  ZINC000182044395    0.0800
     44 H44        -2.9193    1.2010   47.2201 H       1  ZINC000182044395    0.1200
     45 H45        -1.0459   -0.0142   46.1824 H       1  ZINC000182044395    0.1200
     46 H46         1.1380   -0.1100   47.3158 H       1  ZINC000182044395    0.1200
     47 H47         1.4456    1.0008   49.4918 H       1  ZINC000182044395    0.1200
     48 H48        -0.4258    2.2221   50.5260 H       1  ZINC000182044395    0.1200
     49 H49        -9.5395   -1.7217   51.7307 H       1  ZINC000182044395    0.1500
     50 H50       -11.8916   -1.6235   55.2886 H       1  ZINC000182044395    0.1500
     51 H51       -10.6948    0.3721   56.0611 H       1  ZINC000182044395    0.1500
@<TRIPOS>BOND
     1     1     2    1
     2     1    31    1
     3     1    32    1
     4     1    33    1
     5     2     3    1
     6     2    34    1
     7     2    35    1
     8     3    30    1
     9     3     4    1
    10     4     5    2
    11     4    36    1
    12     5     6    1
    13     5    22    1
    14     6     7    2
    15     6     8   am
    16     8     9    1
    17     8    37    1
    18     9    10    1
    19     9    11    1
    20     9    12    1
    21    11    38    1
    22    11    39    1
    23    11    40    1
    24    12    13    1
    25    12    14    1
    26    12    15    1
    27    14    41    1
    28    15    16    1
    29    15    42    1
    30    15    43    1
    31    16    21   ar
    32    16    17   ar
    33    17    18   ar
    34    17    44    1
    35    18    19   ar
    36    18    45    1
    37    19    20   ar
    38    19    46    1
    39    20    21   ar
    40    20    47    1
    41    21    48    1
    42    22    23    2
    43    22    24    1
    44    24    30   ar
    45    24    25   ar
    46    25    26   ar
    47    25    49    1
    48    26    27    1
    49    26    28   ar
    50    28    29   ar
    51    28    50    1
    52    29    30   ar
    53    29    51    1
@<TRIPOS>SUBSTRUCTURE
     1 ZINC000182044395        1 TEMP              0 ****  ****    0 ROOT


##########                                Name:    ZINC001300804061
##########                DOCK_Rotatable_Bonds:                   5
##########                         Heavy_Atoms:                  27
##########                    Molecular_Weight:              390.55
##########                DOCK_Rotatable_Bonds:                   5
##########                       Formal_Charge:                0.01
##########                     HBond_Acceptors:                   7
##########                        HBond_Donors:                   0
##########                         Heavy_Atoms:                  27
##########                          Grid_Score:          -33.677433
##########                     Grid_vdw_energy:          -32.252449
##########                      Grid_es_energy:           -1.424984
##########           Internal_energy_repulsive:           18.449009

@<TRIPOS>MOLECULE
ZINC001300804061
 57 60 1 0 0
SMALL
USER_CHARGES


@<TRIPOS>ATOM
      1 C1        -11.8007   -1.9673   51.7448 C.3     1  ZINC001300804061    0.0300
      2 O2        -12.2557   -3.0469   52.5631 O.3     1  ZINC001300804061   -0.3800
      3 C3        -12.8999   -2.6308   53.7688 C.3     1  ZINC001300804061    0.1000
      4 H4        -13.0318   -1.5488   53.7563 H       1  ZINC001300804061    0.0700
      5 C5        -12.0392   -3.0266   54.9707 C.3     1  ZINC001300804061    0.0500
      6 N6        -12.7107   -2.6180   56.2111 N.3     1  ZINC001300804061   -0.4600
      7 C7        -11.9008   -2.8433   57.3112 C.2     1  ZINC001300804061    0.3600
      8 N8        -11.3058   -3.9721   57.6217 N.2     1  ZINC001300804061   -0.3000
      9 N9        -10.6308   -3.8332   58.7064 N.2     1  ZINC001300804061   -0.2500
     10 C10       -10.7538   -2.6036   59.1561 C.2     1  ZINC001300804061    0.2600
     11 C11       -10.1348   -2.0498   60.3706 C.2     1  ZINC001300804061    0.0400
     12 C12        -8.8900   -2.3446   60.8399 C.2     1  ZINC001300804061   -0.1300
     13 C13        -8.7126   -1.5935   62.0179 C.2     1  ZINC001300804061   -0.2100
     14 C14        -9.8431   -0.8849   62.2093 C.2     1  ZINC001300804061    0.0100
     15 C15       -10.1026    0.0623   63.3524 C.3     1  ZINC001300804061   -0.0800
     16 O16       -10.6978   -1.1582   61.2098 O.3     1  ZINC001300804061   -0.1700
     17 N17       -11.5675   -1.9309   58.2715 N.pl3   1  ZINC001300804061   -0.4600
     18 C18       -11.9936   -0.5314   58.3491 C.3     1  ZINC001300804061    0.1200
     19 C19       -10.9500    0.3578   57.6701 C.3     1  ZINC001300804061   -0.1000
     20 H20       -11.3107    1.3862   57.6472 H       1  ZINC001300804061    0.0900
     21 C21       -10.7202   -0.1301   56.2427 C.3     1  ZINC001300804061   -0.1200
     22 C22        -9.8944    0.8809   55.4529 C.3     1  ZINC001300804061   -0.1200
     23 C23        -8.4504    0.8876   55.9616 C.3     1  ZINC001300804061   -0.0800
     24 S24        -8.4417    1.4310   57.6959 S.3     1  ZINC001300804061   -0.2600
     25 C25        -9.6392    0.2962   58.4587 C.3     1  ZINC001300804061   -0.0700
     26 C26       -14.0045   -3.2958   56.3625 C.3     1  ZINC001300804061    0.0600
     27 C27       -14.9239   -2.9080   55.2022 C.3     1  ZINC001300804061   -0.1100
     28 C28       -14.2671   -3.3113   53.8791 C.3     1  ZINC001300804061   -0.0900
     29 H29       -14.1377   -4.3933   53.8515 H       1  ZINC001300804061    0.0800
     30 C30       -15.1550   -2.8727   52.7129 C.3     1  ZINC001300804061   -0.1400
     31 H31       -12.6492   -1.3459   51.4582 H       1  ZINC001300804061    0.0400
     32 H32       -11.0822   -1.3666   52.3024 H       1  ZINC001300804061    0.0400
     33 H33       -11.3236   -2.3661   50.8495 H       1  ZINC001300804061    0.0900
     34 H34       -11.8955   -4.1071   54.9745 H       1  ZINC001300804061    0.0700
     35 H35       -11.0703   -2.5319   54.9023 H       1  ZINC001300804061    0.0800
     36 H36        -8.1774   -3.0233   60.3948 H       1  ZINC001300804061    0.1600
     37 H37        -7.8361   -1.5867   62.6488 H       1  ZINC001300804061    0.1600
     38 H38        -9.7738    1.0641   63.0759 H       1  ZINC001300804061    0.0900
     39 H39       -11.1694    0.0787   63.5757 H       1  ZINC001300804061    0.0800
     40 H40        -9.5523   -0.2707   64.2324 H       1  ZINC001300804061    0.0900
     41 H41       -12.9531   -0.4153   57.8451 H       1  ZINC001300804061    0.1100
     42 H42       -12.0946   -0.2398   59.3945 H       1  ZINC001300804061    0.1000
     43 H43       -10.1911   -1.0827   56.2700 H       1  ZINC001300804061    0.0700
     44 H44       -11.6832   -0.2691   55.7515 H       1  ZINC001300804061    0.0800
     45 H45        -9.9048    0.6107   54.3969 H       1  ZINC001300804061    0.0800
     46 H46       -10.3256    1.8745   55.5747 H       1  ZINC001300804061    0.0800
     47 H47        -8.0339   -0.1172   55.8916 H       1  ZINC001300804061    0.0800
     48 H48        -7.8546    1.5747   55.3606 H       1  ZINC001300804061    0.1100
     49 H49        -9.8215    0.5972   59.4903 H       1  ZINC001300804061    0.1000
     50 H50        -9.2449   -0.7197   58.4368 H       1  ZINC001300804061    0.0900
     51 H51       -13.8517   -4.3750   56.3597 H       1  ZINC001300804061    0.0600
     52 H52       -14.4632   -2.9965   57.3050 H       1  ZINC001300804061    0.0800
     53 H53       -15.8787   -3.4234   55.3065 H       1  ZINC001300804061    0.0800
     54 H54       -15.0884   -1.8306   55.2126 H       1  ZINC001300804061    0.0800
     55 H55       -15.2819   -1.7905   52.7399 H       1  ZINC001300804061    0.0500
     56 H56       -14.6867   -3.1602   51.7716 H       1  ZINC001300804061    0.0600
     57 H57       -16.1289   -3.3550   52.7963 H       1  ZINC001300804061    0.0600
@<TRIPOS>BOND
     1     1     2    1
     2     1    31    1
     3     1    32    1
     4     1    33    1
     5     2     3    1
     6     3     4    1
     7     3    28    1
     8     3     5    1
     9     5     6    1
    10     5    34    1
    11     5    35    1
    12     6     7    1
    13     6    26    1
    14     7    17    1
    15     7     8    2
    16     8     9    1
    17     9    10    2
    18    10    11    1
    19    10    17    1
    20    11    16    1
    21    11    12    2
    22    12    13    1
    23    12    36    1
    24    13    14    2
    25    13    37    1
    26    14    15    1
    27    14    16    1
    28    15    38    1
    29    15    39    1
    30    15    40    1
    31    17    18    1
    32    18    19    1
    33    18    41    1
    34    18    42    1
    35    19    20    1
    36    19    25    1
    37    19    21    1
    38    21    22    1
    39    21    43    1
    40    21    44    1
    41    22    23    1
    42    22    45    1
    43    22    46    1
    44    23    24    1
    45    23    47    1
    46    23    48    1
    47    24    25    1
    48    25    49    1
    49    25    50    1
    50    26    27    1
    51    26    51    1
    52    26    52    1
    53    27    28    1
    54    27    53    1
    55    27    54    1
    56    28    29    1
    57    28    30    1
    58    30    55    1
    59    30    56    1
    60    30    57    1
@<TRIPOS>SUBSTRUCTURE
     1 ZINC001300804061        1 TEMP              0 ****  ****    0 ROOT


##########                                Name:    ZINC000151303733
##########                DOCK_Rotatable_Bonds:                   7
##########                         Heavy_Atoms:                  26
##########                    Molecular_Weight:             369.444
##########                DOCK_Rotatable_Bonds:                   7
##########                       Formal_Charge:        -1.93715e-07
##########                     HBond_Acceptors:                   7
##########                        HBond_Donors:                   2
##########                         Heavy_Atoms:                  26
##########                          Grid_Score:          -33.635624
##########                     Grid_vdw_energy:          -33.247173
##########                      Grid_es_energy:           -0.388452
##########           Internal_energy_repulsive:           61.202953

@<TRIPOS>MOLECULE
ZINC000151303733
 45 48 1 0 0
SMALL
USER_CHARGES


@<TRIPOS>ATOM
      1 C1         -6.7599    2.5645   52.6111 C.3     1  ZINC000151303733   -0.1000
      2 C2         -7.3414    1.1888   52.4105 C.2     1  ZINC000151303733   -0.1200
      3 C3         -6.9544    0.3834   51.4205 C.2     1  ZINC000151303733   -0.2000
      4 S4         -7.8470   -1.1296   51.5033 S.3     1  ZINC000151303733    0.1200
      5 C5         -8.7252   -0.5711   52.9210 C.2     1  ZINC000151303733   -0.2400
      6 C6         -8.3166    0.6611   53.2455 C.2     1  ZINC000151303733    0.1200
      7 N7         -8.8417    1.3703   54.3416 N.am    1  ZINC000151303733   -0.6400
      8 C8         -9.7646    0.7945   55.1373 C.2     1  ZINC000151303733    0.5100
      9 O9        -10.1428   -0.3352   54.9084 O.2     1  ZINC000151303733   -0.5100
     10 C10       -10.3269    1.5541   56.3111 C.3     1  ZINC000151303733    0.1000
     11 N11       -10.8489    0.6078   57.3002 N.am    1  ZINC000151303733   -0.7100
     12 C12       -10.0216    0.0642   58.2149 C.2     1  ZINC000151303733    0.5200
     13 O13        -8.8448    0.3574   58.2182 O.2     1  ZINC000151303733   -0.5100
     14 C14       -10.5589   -0.9077   59.2335 C.3     1  ZINC000151303733    0.1600
     15 H15       -11.6488   -0.8913   59.2280 H       1  ZINC000151303733    0.1300
     16 C16       -10.0422   -0.5580   60.6066 C.ar    1  ZINC000151303733   -0.0900
     17 C17       -10.1651    0.5557   61.4042 C.ar    1  ZINC000151303733   -0.0900
     18 C18        -9.5613    0.5842   62.6504 C.ar    1  ZINC000151303733   -0.0800
     19 C19        -8.8342   -0.5052   63.0960 C.ar    1  ZINC000151303733   -0.1200
     20 C20        -8.7046   -1.6274   62.3038 C.ar    1  ZINC000151303733   -0.0400
     21 C21        -9.3103   -1.6636   61.0468 C.ar    1  ZINC000151303733   -0.1500
     22 C22        -9.3523   -2.6954   59.9930 C.2     1  ZINC000151303733    0.5600
     23 O23        -8.8125   -3.7823   60.0631 O.2     1  ZINC000151303733   -0.5100
     24 N24       -10.0736   -2.2618   58.9434 N.am    1  ZINC000151303733   -0.5700
     25 C25       -10.3310   -3.0169   57.7146 C.3     1  ZINC000151303733    0.0900
     26 C26       -10.8158   -4.4607   57.8612 C.3     1  ZINC000151303733   -0.1800
     27 C27       -11.7845   -3.3721   57.3951 C.3     1  ZINC000151303733   -0.1900
     28 H28        -5.8884    2.4991   53.2626 H       1  ZINC000151303733    0.0700
     29 H29        -6.4627    2.9775   51.6472 H       1  ZINC000151303733    0.0700
     30 H30        -7.5079    3.2119   53.0688 H       1  ZINC000151303733    0.0600
     31 H31        -6.2063    0.6241   50.6797 H       1  ZINC000151303733    0.1700
     32 H32        -9.4762   -1.1379   53.4513 H       1  ZINC000151303733    0.2000
     33 H33        -8.5394    2.2737   54.5245 H       1  ZINC000151303733    0.4200
     34 H34        -9.5399    2.1565   56.7647 H       1  ZINC000151303733    0.1100
     35 H35       -11.1322    2.2049   55.9707 H       1  ZINC000151303733    0.1100
     36 H36       -11.7899    0.3725   57.2969 H       1  ZINC000151303733    0.4100
     37 H37       -10.7318    1.4078   61.0588 H       1  ZINC000151303733    0.1300
     38 H38        -9.6580    1.4593   63.2758 H       1  ZINC000151303733    0.1400
     39 H39        -8.3654   -0.4768   64.0686 H       1  ZINC000151303733    0.1400
     40 H40        -8.1364   -2.4759   62.6557 H       1  ZINC000151303733    0.1400
     41 H41        -9.6725   -2.7894   56.8763 H       1  ZINC000151303733    0.1400
     42 H42       -10.4760   -5.1834   57.1192 H       1  ZINC000151303733    0.1000
     43 H43       -10.9431   -4.8487   58.8717 H       1  ZINC000151303733    0.1300
     44 H44       -12.5493   -3.0439   58.0990 H       1  ZINC000151303733    0.1000
     45 H45       -12.0822   -3.3785   56.3465 H       1  ZINC000151303733    0.1000
@<TRIPOS>BOND
     1     1     2    1
     2     1    28    1
     3     1    29    1
     4     1    30    1
     5     2     6    1
     6     2     3    2
     7     3     4    1
     8     3    31    1
     9     4     5    1
    10     5     6    2
    11     5    32    1
    12     6     7    1
    13     7     8   am
    14     7    33    1
    15     8     9    2
    16     8    10    1
    17    10    11    1
    18    10    34    1
    19    10    35    1
    20    11    12   am
    21    11    36    1
    22    12    13    2
    23    12    14    1
    24    14    15    1
    25    14    24    1
    26    14    16    1
    27    16    21   ar
    28    16    17   ar
    29    17    18   ar
    30    17    37    1
    31    18    19   ar
    32    18    38    1
    33    19    20   ar
    34    19    39    1
    35    20    21   ar
    36    20    40    1
    37    21    22    1
    38    22    23    2
    39    22    24   am
    40    24    25    1
    41    25    27    1
    42    25    26    1
    43    25    41    1
    44    26    27    1
    45    26    42    1
    46    26    43    1
    47    27    44    1
    48    27    45    1
@<TRIPOS>SUBSTRUCTURE
     1 ZINC000151303733        1 TEMP              0 ****  ****    0 ROOT


##########                                Name:    ZINC000265786263
##########                DOCK_Rotatable_Bonds:                   7
##########                         Heavy_Atoms:                  28
##########                    Molecular_Weight:             386.451
##########                DOCK_Rotatable_Bonds:                   7
##########                       Formal_Charge:           0.0499992
##########                     HBond_Acceptors:                   8
##########                        HBond_Donors:                   2
##########                         Heavy_Atoms:                  28
##########                          Grid_Score:          -33.633957
##########                     Grid_vdw_energy:          -30.741714
##########                      Grid_es_energy:           -2.892241
##########           Internal_energy_repulsive:           15.493731

@<TRIPOS>MOLECULE
ZINC000265786263
 54 57 1 0 0
SMALL
USER_CHARGES


@<TRIPOS>ATOM
      1 C1        -11.5781   -2.7160   53.9887 C.3     1  ZINC000265786263   -0.1500
      2 C2        -12.3359   -2.9239   55.3016 C.3     1  ZINC000265786263    0.1600
      3 C3        -13.8373   -2.7151   55.0934 C.3     1  ZINC000265786263   -0.1600
      4 C4        -14.6653   -3.9259   54.6584 C.3     1  ZINC000265786263   -0.1600
      5 C5        -14.7883   -3.3878   56.0853 C.3     1  ZINC000265786263   -0.1600
      6 N6        -12.0669   -4.2650   55.8484 N.am    1  ZINC000265786263   -0.7100
      7 C7        -11.4805   -4.0819   57.0453 C.2     1  ZINC000265786263    0.7100
      8 O8        -11.1249   -4.9909   57.7696 O.2     1  ZINC000265786263   -0.5400
      9 N9        -11.3327   -2.7874   57.3493 N.am    1  ZINC000265786263   -0.5600
     10 C10       -10.7248   -2.2973   58.5889 C.3     1  ZINC000265786263    0.1000
     11 C11       -11.8003   -1.7592   59.4971 C.2     1  ZINC000265786263    0.5100
     12 O12       -12.9521   -1.7245   59.1190 O.2     1  ZINC000265786263   -0.5300
     13 N13       -11.4820   -1.3163   60.7297 N.am    1  ZINC000265786263   -0.6100
     14 C14       -10.0904   -1.3420   61.2051 C.3     1  ZINC000265786263    0.1100
     15 C15        -9.7334    0.0483   61.7413 C.3     1  ZINC000265786263    0.0400
     16 N16       -10.7258    0.4517   62.7465 N.3     1  ZINC000265786263   -0.5300
     17 C17       -10.3267    1.7007   63.4087 C.3     1  ZINC000265786263    0.0900
     18 C18        -9.9288    1.4093   64.8328 C.ar    1  ZINC000265786263   -0.0600
     19 C19       -10.5658    2.0577   65.8743 C.ar    1  ZINC000265786263   -0.1300
     20 C20       -10.2030    1.7925   67.1821 C.ar    1  ZINC000265786263   -0.1000
     21 C21        -9.2027    0.8787   67.4508 C.ar    1  ZINC000265786263   -0.1400
     22 C22        -8.5617    0.2267   66.4071 C.ar    1  ZINC000265786263    0.1100
     23 O23        -7.5774   -0.6730   66.6689 O.3     1  ZINC000265786263   -0.5000
     24 C24        -8.9313    0.4903   65.0964 C.ar    1  ZINC000265786263   -0.1200
     25 C25       -12.0645    0.5744   62.1543 C.3     1  ZINC000265786263    0.0400
     26 C26       -12.5162   -0.7888   61.6327 C.3     1  ZINC000265786263    0.1200
     27 C27       -11.8112   -1.9899   56.3740 C.2     1  ZINC000265786263    0.5400
     28 O28       -11.8195   -0.7777   56.3573 O.2     1  ZINC000265786263   -0.4500
     29 H29       -10.5166   -2.9056   54.1480 H       1  ZINC000265786263    0.0700
     30 H30       -11.9611   -3.4041   53.2352 H       1  ZINC000265786263    0.0800
     31 H31       -11.7168   -1.6900   53.6478 H       1  ZINC000265786263    0.0900
     32 H32       -14.1263   -1.7400   54.7012 H       1  ZINC000265786263    0.1100
     33 H33       -15.4994   -3.7475   53.9796 H       1  ZINC000265786263    0.1000
     34 H34       -14.1406   -4.8712   54.5204 H       1  ZINC000265786263    0.1100
     35 H35       -14.3445   -3.9791   56.8862 H       1  ZINC000265786263    0.1000
     36 H36       -15.7033   -2.8554   56.3453 H       1  ZINC000265786263    0.1000
     37 H37       -12.2728   -5.1144   55.4279 H       1  ZINC000265786263    0.4400
     38 H38       -10.2048   -3.1158   59.0868 H       1  ZINC000265786263    0.1300
     39 H39       -10.0149   -1.5037   58.3564 H       1  ZINC000265786263    0.1300
     40 H40        -9.9893   -2.0788   62.0019 H       1  ZINC000265786263    0.0900
     41 H41        -9.4261   -1.5979   60.3796 H       1  ZINC000265786263    0.0900
     42 H42        -8.7442    0.0190   62.1982 H       1  ZINC000265786263    0.0900
     43 H43        -9.7344    0.7659   60.9208 H       1  ZINC000265786263    0.0400
     44 H44        -9.4818    2.1395   62.8779 H       1  ZINC000265786263    0.0900
     45 H45       -11.1632    2.3995   63.4010 H       1  ZINC000265786263    0.0500
     46 H46       -11.3481    2.7727   65.6663 H       1  ZINC000265786263    0.1200
     47 H47       -10.7020    2.3005   67.9940 H       1  ZINC000265786263    0.1300
     48 H48        -8.9194    0.6723   68.4724 H       1  ZINC000265786263    0.1300
     49 H49        -7.1918   -1.0752   65.8786 H       1  ZINC000265786263    0.3900
     50 H50        -8.4339   -0.0160   64.2824 H       1  ZINC000265786263    0.1300
     51 H51       -12.7660    0.9266   62.9106 H       1  ZINC000265786263    0.1000
     52 H52       -12.0330    1.2846   61.3281 H       1  ZINC000265786263    0.0400
     53 H53       -13.4564   -0.6807   61.0917 H       1  ZINC000265786263    0.1000
     54 H54       -12.6485   -1.4753   62.4689 H       1  ZINC000265786263    0.0800
@<TRIPOS>BOND
     1     1     2    1
     2     1    29    1
     3     1    30    1
     4     1    31    1
     5     2    27    1
     6     2     3    1
     7     2     6    1
     8     3     5    1
     9     3     4    1
    10     3    32    1
    11     4     5    1
    12     4    33    1
    13     4    34    1
    14     5    35    1
    15     5    36    1
    16     6     7   am
    17     6    37    1
    18     7     8    2
    19     7     9   am
    20     9    10    1
    21     9    27   am
    22    10    11    1
    23    10    38    1
    24    10    39    1
    25    11    12    2
    26    11    13   am
    27    13    26    1
    28    13    14    1
    29    14    15    1
    30    14    40    1
    31    14    41    1
    32    15    16    1
    33    15    42    1
    34    15    43    1
    35    16    17    1
    36    16    25    1
    37    17    18    1
    38    17    44    1
    39    17    45    1
    40    18    24   ar
    41    18    19   ar
    42    19    20   ar
    43    19    46    1
    44    20    21   ar
    45    20    47    1
    46    21    22   ar
    47    21    48    1
    48    22    23    1
    49    22    24   ar
    50    23    49    1
    51    24    50    1
    52    25    26    1
    53    25    51    1
    54    25    52    1
    55    26    53    1
    56    26    54    1
    57    27    28    2
@<TRIPOS>SUBSTRUCTURE
     1 ZINC000265786263        1 TEMP              0 ****  ****    0 ROOT


##########                                Name:    ZINC000541252362
##########                DOCK_Rotatable_Bonds:                   5
##########                         Heavy_Atoms:                  27
##########                    Molecular_Weight:             401.254
##########                DOCK_Rotatable_Bonds:                   5
##########                       Formal_Charge:          -0.0199999
##########                     HBond_Acceptors:                   9
##########                        HBond_Donors:                   1
##########                         Heavy_Atoms:                  27
##########                          Grid_Score:          -33.614956
##########                     Grid_vdw_energy:          -34.203186
##########                      Grid_es_energy:            0.588228
##########           Internal_energy_repulsive:            7.606681

@<TRIPOS>MOLECULE
ZINC000541252362
 41 44 1 0 0
SMALL
USER_CHARGES


@<TRIPOS>ATOM
      1 C1         -2.4737    3.2623   50.0868 C.3     1  ZINC000541252362    0.1000
      2 N2         -3.6406    2.4024   50.2999 N.pl3   1  ZINC000541252362   -0.3800
      3 C3         -3.9879    1.3233   49.5757 C.2     1  ZINC000541252362    0.2600
      4 N4         -5.0874    0.8281   50.0791 N.2     1  ZINC000541252362   -0.5300
      5 C5         -5.4768    1.5635   51.1291 C.2     1  ZINC000541252362    0.2700
      6 C6         -6.6801    1.3142   51.9612 C.ar    1  ZINC000541252362    0.0000
      7 C7         -7.0869    2.2585   52.9018 C.ar    1  ZINC000541252362   -0.1000
      8 C8         -8.2069    2.0253   53.6751 C.ar    1  ZINC000541252362   -0.1000
      9 C9         -8.9275    0.8566   53.5199 C.ar    1  ZINC000541252362   -0.1300
     10 C10        -8.5291   -0.0905   52.5844 C.ar    1  ZINC000541252362    0.1400
     11 N11        -9.2614   -1.2731   52.4300 N.am    1  ZINC000541252362   -0.6800
     12 C12       -10.6055   -1.2270   52.3430 C.2     1  ZINC000541252362    0.5100
     13 O13       -11.1806   -0.1605   52.3985 O.2     1  ZINC000541252362   -0.4900
     14 C14       -11.3940   -2.5004   52.1767 C.3     1  ZINC000541252362   -0.0600
     15 C15       -12.2537   -2.7216   53.3945 C.2     1  ZINC000541252362    0.0700
     16 C16       -13.5087   -2.2521   53.5694 C.2     1  ZINC000541252362   -0.0700
     17 N17       -13.9301   -2.6741   54.8006 N.pl3   1  ZINC000541252362   -0.3500
     18 C18       -15.0968   -2.4968   55.4884 C.2     1  ZINC000541252362    0.0700
     19 C19       -15.2586   -3.0318   56.7176 C.2     1  ZINC000541252362   -0.0500
     20 Cl20      -16.7496   -2.7942   57.5742 Cl      1  ZINC000541252362   -0.0200
     21 C21       -14.2251   -3.7807   57.3062 C.2     1  ZINC000541252362   -0.0900
     22 C22       -13.0577   -3.9651   56.6312 C.2     1  ZINC000541252362    0.0200
     23 Cl23      -11.7703   -4.8877   57.3420 Cl      1  ZINC000541252362   -0.0100
     24 C24       -12.9046   -3.3993   55.3485 C.2     1  ZINC000541252362    0.2200
     25 N25       -11.9048   -3.4189   54.4780 N.2     1  ZINC000541252362   -0.4300
     26 C26        -7.4089    0.1387   51.8001 C.ar    1  ZINC000541252362   -0.0800
     27 N27        -4.6129    2.5393   51.3038 N.2     1  ZINC000541252362   -0.3100
     28 H28        -1.6282    2.8746   50.6551 H       1  ZINC000541252362    0.0800
     29 H29        -2.2224    3.2775   49.0263 H       1  ZINC000541252362    0.0900
     30 H30        -2.7023    4.2744   50.4207 H       1  ZINC000541252362    0.0900
     31 H31        -3.4503    0.9331   48.7241 H       1  ZINC000541252362    0.2200
     32 H32        -6.5257    3.1728   53.0263 H       1  ZINC000541252362    0.1300
     33 H33        -8.5205    2.7585   54.4035 H       1  ZINC000541252362    0.1300
     34 H34        -9.8024    0.6786   54.1276 H       1  ZINC000541252362    0.1300
     35 H35        -8.8014   -2.1259   52.3856 H       1  ZINC000541252362    0.4100
     36 H36       -12.0281   -2.4224   51.2935 H       1  ZINC000541252362    0.1200
     37 H37       -10.7084   -3.3396   52.0587 H       1  ZINC000541252362    0.1200
     38 H38       -14.0731   -1.6548   52.8686 H       1  ZINC000541252362    0.1900
     39 H39       -15.8972   -1.9231   55.0451 H       1  ZINC000541252362    0.1800
     40 H40       -14.3565   -4.2075   58.2896 H       1  ZINC000541252362    0.1600
     41 H41        -7.0977   -0.5959   51.0722 H       1  ZINC000541252362    0.1500
@<TRIPOS>BOND
     1     1     2    1
     2     1    28    1
     3     1    29    1
     4     1    30    1
     5     2    27    1
     6     2     3    1
     7     3     4    2
     8     3    31    1
     9     4     5    1
    10     5     6    1
    11     5    27    2
    12     6    26   ar
    13     6     7   ar
    14     7     8   ar
    15     7    32    1
    16     8     9   ar
    17     8    33    1
    18     9    10   ar
    19     9    34    1
    20    10    11    1
    21    10    26   ar
    22    11    12   am
    23    11    35    1
    24    12    13    2
    25    12    14    1
    26    14    15    1
    27    14    36    1
    28    14    37    1
    29    15    25    1
    30    15    16    2
    31    16    17    1
    32    16    38    1
    33    17    24    1
    34    17    18    1
    35    18    19    2
    36    18    39    1
    37    19    20    1
    38    19    21    1
    39    21    22    2
    40    21    40    1
    41    22    23    1
    42    22    24    1
    43    24    25    2
    44    26    41    1
@<TRIPOS>SUBSTRUCTURE
     1 ZINC000541252362        1 TEMP              0 ****  ****    0 ROOT


##########                                Name:    ZINC000848949366
##########                DOCK_Rotatable_Bonds:                   8
##########                         Heavy_Atoms:                  25
##########                    Molecular_Weight:             368.773
##########                DOCK_Rotatable_Bonds:                   8
##########                       Formal_Charge:          0.00999947
##########                     HBond_Acceptors:                   9
##########                        HBond_Donors:                   3
##########                         Heavy_Atoms:                  25
##########                          Grid_Score:          -33.600040
##########                     Grid_vdw_energy:          -32.708405
##########                      Grid_es_energy:           -0.891637
##########           Internal_energy_repulsive:            9.065690

@<TRIPOS>MOLECULE
ZINC000848949366
 42 43 1 0 0
SMALL
USER_CHARGES


@<TRIPOS>ATOM
      1 C1         -8.7719    2.5187   56.6695 C.3     1  ZINC000848949366   -0.1500
      2 C2         -8.2421    1.8415   57.9351 C.3     1  ZINC000848949366    0.0600
      3 O3         -8.4230    0.4279   57.8301 O.3     1  ZINC000848949366   -0.3500
      4 C4         -9.5981   -0.0733   58.2651 C.2     1  ZINC000848949366    0.5400
      5 O5        -10.4776    0.6782   58.6425 O.2     1  ZINC000848949366   -0.4800
      6 C6         -9.8074   -1.4721   58.2824 C.2     1  ZINC000848949366   -0.2300
      7 C7        -10.3449   -2.1107   57.2208 C.2     1  ZINC000848949366    0.2000
      8 C8        -10.7284   -1.3202   55.9964 C.3     1  ZINC000848949366    0.1000
      9 O9        -10.9287   -2.2253   54.8789 O.3     1  ZINC000848949366   -0.3500
     10 C10       -11.1373   -1.6679   53.6699 C.2     1  ZINC000848949366    0.5100
     11 O11       -12.2409   -1.7108   53.1632 O.2     1  ZINC000848949366   -0.4800
     12 C12       -10.0271   -1.0060   52.9625 C.ar    1  ZINC000848949366   -0.1600
     13 C13        -9.1067   -1.7645   52.2337 C.ar    1  ZINC000848949366   -0.0300
     14 C14        -8.0709   -1.1401   51.5745 C.ar    1  ZINC000848949366   -0.1300
     15 C15        -7.9363    0.2390   51.6305 C.ar    1  ZINC000848949366    0.0200
     16 Cl16       -6.6259    1.0129   50.7954 Cl      1  ZINC000848949366   -0.0500
     17 C17        -8.8401    1.0010   52.3473 C.ar    1  ZINC000848949366   -0.1500
     18 C18        -9.8915    0.3892   53.0118 C.ar    1  ZINC000848949366    0.1900
     19 O19       -10.7789    1.1355   53.7155 O.3     1  ZINC000848949366   -0.4700
     20 N20       -10.5461   -3.4613   57.2385 N.am    1  ZINC000848949366   -0.6400
     21 C21       -10.2370   -4.2444   58.2797 C.2     1  ZINC000848949366    0.7100
     22 O22       -10.4533   -5.4381   58.2021 O.2     1  ZINC000848949366   -0.5600
     23 N23        -9.6936   -3.7525   59.4106 N.am    1  ZINC000848949366   -0.7100
     24 C24        -9.4305   -2.3058   59.4901 C.3     1  ZINC000848949366    0.2000
     25 H25        -8.3667   -2.1679   59.6836 H       1  ZINC000848949366    0.0900
     26 C26       -10.1996   -1.7519   60.6912 C.3     1  ZINC000848949366   -0.1700
     27 H27        -8.6339    3.5970   56.7495 H       1  ZINC000848949366    0.0800
     28 H28        -8.2266    2.1459   55.8024 H       1  ZINC000848949366    0.0700
     29 H29        -9.8327    2.2957   56.5551 H       1  ZINC000848949366    0.0700
     30 H30        -7.1813    2.0645   58.0495 H       1  ZINC000848949366    0.0700
     31 H31        -8.7874    2.2143   58.8021 H       1  ZINC000848949366    0.0700
     32 H32       -11.6511   -0.7736   56.1911 H       1  ZINC000848949366    0.1100
     33 H33        -9.9327   -0.6154   55.7551 H       1  ZINC000848949366    0.1000
     34 H34        -9.2072   -2.8388   52.1880 H       1  ZINC000848949366    0.1500
     35 H35        -7.3602   -1.7271   51.0118 H       1  ZINC000848949366    0.1500
     36 H36        -8.7289    2.0746   52.3865 H       1  ZINC000848949366    0.1500
     37 H37       -11.4876    0.6209   54.1256 H       1  ZINC000848949366    0.4000
     38 H38       -10.9349   -3.8765   56.4529 H       1  ZINC000848949366    0.4300
     39 H39        -9.4778   -4.3381   60.1532 H       1  ZINC000848949366    0.4400
     40 H40        -9.8594   -2.2473   61.6005 H       1  ZINC000848949366    0.0700
     41 H41       -10.0218   -0.6796   60.7733 H       1  ZINC000848949366    0.0700
     42 H42       -11.2657   -1.9340   60.5553 H       1  ZINC000848949366    0.0700
@<TRIPOS>BOND
     1     1     2    1
     2     1    27    1
     3     1    28    1
     4     1    29    1
     5     2     3    1
     6     2    30    1
     7     2    31    1
     8     3     4    1
     9     4     5    2
    10     4     6    1
    11     6    24    1
    12     6     7    2
    13     7     8    1
    14     7    20    1
    15     8     9    1
    16     8    32    1
    17     8    33    1
    18     9    10    1
    19    10    11    2
    20    10    12    1
    21    12    18   ar
    22    12    13   ar
    23    13    14   ar
    24    13    34    1
    25    14    15   ar
    26    14    35    1
    27    15    16    1
    28    15    17   ar
    29    17    18   ar
    30    17    36    1
    31    18    19    1
    32    19    37    1
    33    20    21   am
    34    20    38    1
    35    21    22    2
    36    21    23   am
    37    23    24    1
    38    23    39    1
    39    24    25    1
    40    24    26    1
    41    26    40    1
    42    26    41    1
    43    26    42    1
@<TRIPOS>SUBSTRUCTURE
     1 ZINC000848949366        1 TEMP              0 ****  ****    0 ROOT


##########                                Name:    ZINC001401207732
##########                DOCK_Rotatable_Bonds:                   8
##########                         Heavy_Atoms:                  23
##########                    Molecular_Weight:             337.446
##########                DOCK_Rotatable_Bonds:                   8
##########                       Formal_Charge:          -0.0199995
##########                     HBond_Acceptors:                   8
##########                        HBond_Donors:                   1
##########                         Heavy_Atoms:                  23
##########                          Grid_Score:          -33.592728
##########                     Grid_vdw_energy:          -32.048450
##########                      Grid_es_energy:           -1.544278
##########           Internal_energy_repulsive:           96.281136

@<TRIPOS>MOLECULE
ZINC001401207732
 46 47 1 0 0
SMALL
USER_CHARGES


@<TRIPOS>ATOM
      1 C1        -13.0125    1.7338   66.2724 C.3     1  ZINC001401207732   -0.0900
      2 C2        -11.5199    1.6583   66.4666 C.2     1  ZINC001401207732    0.1500
      3 C3        -10.6713    1.2318   65.4979 C.2     1  ZINC001401207732   -0.3000
      4 C4        -11.0484    0.7891   64.1513 C.2     1  ZINC001401207732    0.6100
      5 O5        -12.2184    0.7878   63.8166 O.2     1  ZINC001401207732   -0.5200
      6 N6        -10.0992    0.3837   63.2847 N.am    1  ZINC001401207732   -0.5900
      7 C7         -8.6907    0.3853   63.6877 C.3     1  ZINC001401207732    0.0700
      8 C8        -10.4758   -0.0586   61.9398 C.3     1  ZINC001401207732    0.1400
      9 H9        -11.5237   -0.3584   61.9361 H       1  ZINC001401207732    0.1100
     10 C10       -10.2703    1.0893   60.9493 C.3     1  ZINC001401207732   -0.1600
     11 C11        -9.6037   -1.2474   61.5309 C.3     1  ZINC001401207732    0.0500
     12 N12       -10.3221   -2.0652   60.5446 N.3     1  ZINC001401207732   -0.6800
     13 C13        -9.4903   -3.1847   60.0830 C.3     1  ZINC001401207732    0.1500
     14 C14       -10.2093   -3.9254   58.9850 C.2     1  ZINC001401207732    0.1800
     15 N15       -11.1620   -3.4525   58.2181 N.2     1  ZINC001401207732   -0.4800
     16 C16       -11.4967   -4.4607   57.3933 C.2     1  ZINC001401207732    0.1800
     17 C17       -12.5508   -4.4201   56.3171 C.3     1  ZINC001401207732   -0.0100
     18 C18       -13.4970   -5.6107   56.4847 C.3     1  ZINC001401207732   -0.1500
     19 C19       -13.3452   -3.1175   56.4301 C.3     1  ZINC001401207732   -0.1500
     20 N20       -10.7444   -5.4765   57.6951 N.2     1  ZINC001401207732   -0.3800
     21 O21        -9.9939   -5.1878   58.6032 O.3     1  ZINC001401207732    0.0900
     22 S22        -9.0356    1.2980   66.1498 S.3     1  ZINC001401207732    0.1800
     23 C23        -9.6410    1.8926   67.6338 C.2     1  ZINC001401207732    0.0100
     24 N24       -10.9300    1.9992   67.5848 N.2     1  ZINC001401207732   -0.4800
     25 H25       -13.4657    0.7877   66.5682 H       1  ZINC001401207732    0.0800
     26 H26       -13.4183    2.5385   66.8854 H       1  ZINC001401207732    0.0800
     27 H27       -13.2328    1.9299   65.2230 H       1  ZINC001401207732    0.1000
     28 H28        -8.2720    1.3810   63.5411 H       1  ZINC001401207732    0.0600
     29 H29        -8.6133    0.1097   64.7395 H       1  ZINC001401207732    0.0800
     30 H30        -8.1387   -0.3336   63.0822 H       1  ZINC001401207732    0.0900
     31 H31       -10.5506    0.7602   59.9486 H       1  ZINC001401207732    0.0700
     32 H32       -10.8917    1.9362   61.2406 H       1  ZINC001401207732    0.0700
     33 H33        -9.2224    1.3892   60.9529 H       1  ZINC001401207732    0.0600
     34 H34        -9.3787   -1.8520   62.4095 H       1  ZINC001401207732    0.0800
     35 H35        -8.6745   -0.8828   61.0931 H       1  ZINC001401207732    0.0500
     36 H36       -10.6348   -1.5027   59.7674 H       1  ZINC001401207732    0.3600
     37 H37        -9.3001   -3.8630   60.9147 H       1  ZINC001401207732    0.1100
     38 H38        -8.5434   -2.8012   59.7030 H       1  ZINC001401207732    0.0800
     39 H39       -12.0731   -4.4707   55.3385 H       1  ZINC001401207732    0.1000
     40 H40       -14.2594   -5.5813   55.7063 H       1  ZINC001401207732    0.0700
     41 H41       -12.9311   -6.5387   56.4042 H       1  ZINC001401207732    0.0600
     42 H42       -13.9747   -5.5601   57.4632 H       1  ZINC001401207732    0.0600
     43 H43       -12.6711   -2.2693   56.3107 H       1  ZINC001401207732    0.0600
     44 H44       -14.1076   -3.0881   55.6517 H       1  ZINC001401207732    0.0700
     45 H45       -13.8229   -3.0669   57.4086 H       1  ZINC001401207732    0.0600
     46 H46        -9.0343    2.1396   68.4925 H       1  ZINC001401207732    0.2000
@<TRIPOS>BOND
     1     1     2    1
     2     1    25    1
     3     1    26    1
     4     1    27    1
     5     2    24    1
     6     2     3    2
     7     3     4    1
     8     3    22    1
     9     4     5    2
    10     4     6   am
    11     6     7    1
    12     6     8    1
    13     7    28    1
    14     7    29    1
    15     7    30    1
    16     8     9    1
    17     8    10    1
    18     8    11    1
    19    10    31    1
    20    10    32    1
    21    10    33    1
    22    11    12    1
    23    11    34    1
    24    11    35    1
    25    12    13    1
    26    12    36    1
    27    13    14    1
    28    13    37    1
    29    13    38    1
    30    14    21    1
    31    14    15    2
    32    15    16    1
    33    16    17    1
    34    16    20    2
    35    17    18    1
    36    17    19    1
    37    17    39    1
    38    18    40    1
    39    18    41    1
    40    18    42    1
    41    19    43    1
    42    19    44    1
    43    19    45    1
    44    20    21    1
    45    22    23    1
    46    23    24    2
    47    23    46    1
@<TRIPOS>SUBSTRUCTURE
     1 ZINC001401207732        1 TEMP              0 ****  ****    0 ROOT


##########                                Name:    ZINC000194290865
##########                DOCK_Rotatable_Bonds:                   7
##########                         Heavy_Atoms:                  28
##########                    Molecular_Weight:             387.479
##########                DOCK_Rotatable_Bonds:                   7
##########                       Formal_Charge:          -0.0400003
##########                     HBond_Acceptors:                   7
##########                        HBond_Donors:                   0
##########                         Heavy_Atoms:                  28
##########                          Grid_Score:          -33.586845
##########                     Grid_vdw_energy:          -33.050346
##########                      Grid_es_energy:           -0.536499
##########           Internal_energy_repulsive:           39.088326

@<TRIPOS>MOLECULE
ZINC000194290865
 57 59 1 0 0
SMALL
USER_CHARGES


@<TRIPOS>ATOM
      1 C1        -10.2471    0.4148   63.3720 C.3     1  ZINC000194290865   -0.1500
      2 C2         -9.6746    0.2649   61.9612 C.3     1  ZINC000194290865    0.0600
      3 O3        -10.5630   -0.5614   61.1636 O.3     1  ZINC000194290865   -0.3600
      4 C4        -10.2018   -0.7927   59.8917 C.2     1  ZINC000194290865    0.4700
      5 O5         -9.1948   -0.2927   59.4491 O.2     1  ZINC000194290865   -0.4900
      6 C6        -11.0523   -1.6760   59.0155 C.3     1  ZINC000194290865   -0.0600
      7 C7        -10.6719   -3.1445   59.2141 C.3     1  ZINC000194290865   -0.0700
      8 C8        -11.4396   -4.0102   58.2129 C.3     1  ZINC000194290865   -0.1700
      9 C9         -9.1684   -3.3168   58.9896 C.3     1  ZINC000194290865   -0.1600
     10 C10       -12.5510   -1.4599   59.3286 C.3     1  ZINC000194290865   -0.1200
     11 C11       -12.9895   -0.4534   58.2353 C.3     1  ZINC000194290865    0.0900
     12 N12       -12.2272   -0.8928   57.0437 N.am    1  ZINC000194290865   -0.6100
     13 C13       -12.6645   -0.9325   55.7696 C.2     1  ZINC000194290865    0.5800
     14 O14       -13.7979   -0.5828   55.5049 O.2     1  ZINC000194290865   -0.5000
     15 C15       -11.7644   -1.4021   54.6926 C.ar    1  ZINC000194290865    0.0100
     16 C16       -11.9036   -2.6888   54.1376 C.ar    1  ZINC000194290865   -0.2200
     17 C17       -11.0275   -3.0955   53.1164 C.ar    1  ZINC000194290865    0.3000
     18 N18       -10.0840   -2.2723   52.6857 N.ar    1  ZINC000194290865   -0.4700
     19 C19        -9.9301   -1.0646   53.1852 C.ar    1  ZINC000194290865    0.2100
     20 C20        -8.8348   -0.1809   52.6463 C.3     1  ZINC000194290865   -0.1100
     21 C21       -10.7538   -0.5829   54.1897 C.ar    1  ZINC000194290865   -0.1800
     22 O22       -11.3808   -4.3512   52.7754 O.3     1  ZINC000194290865   -0.0800
     23 N23       -12.4776   -4.7622   53.5661 N.2     1  ZINC000194290865   -0.2600
     24 C24       -12.8127   -3.8082   54.3803 C.2     1  ZINC000194290865    0.1600
     25 C25       -13.9316   -3.8473   55.3892 C.3     1  ZINC000194290865   -0.0400
     26 C26       -15.2336   -3.3959   54.7246 C.3     1  ZINC000194290865   -0.1500
     27 C27       -14.0952   -5.2751   55.9142 C.3     1  ZINC000194290865   -0.1400
     28 C28       -10.8913   -1.2769   57.5368 C.3     1  ZINC000194290865    0.1200
     29 H29       -11.2291    0.8847   63.3176 H       1  ZINC000194290865    0.0700
     30 H30       -10.3400   -0.5687   63.8328 H       1  ZINC000194290865    0.0700
     31 H31        -9.5801    1.0351   63.9708 H       1  ZINC000194290865    0.0800
     32 H32        -9.5817    1.2484   61.5004 H       1  ZINC000194290865    0.0700
     33 H33        -8.6926   -0.2050   62.0156 H       1  ZINC000194290865    0.0700
     34 H34       -10.9252   -3.4514   60.2289 H       1  ZINC000194290865    0.0900
     35 H35       -12.5107   -3.8875   58.3728 H       1  ZINC000194290865    0.0500
     36 H36       -11.1862   -3.7032   57.1981 H       1  ZINC000194290865    0.0800
     37 H37       -11.1686   -5.0564   58.3544 H       1  ZINC000194290865    0.0600
     38 H38        -8.6215   -2.7002   59.7028 H       1  ZINC000194290865    0.0500
     39 H39        -8.8973   -4.3630   59.1311 H       1  ZINC000194290865    0.0600
     40 H40        -8.9150   -3.0098   57.9748 H       1  ZINC000194290865    0.0800
     41 H41       -13.1033   -2.3951   59.2363 H       1  ZINC000194290865    0.0900
     42 H42       -12.6796   -1.0308   60.3223 H       1  ZINC000194290865    0.0900
     43 H43       -14.0619   -0.5255   58.0539 H       1  ZINC000194290865    0.0900
     44 H44       -12.7133    0.5632   58.5152 H       1  ZINC000194290865    0.0900
     45 H45        -9.2189    0.4060   51.8120 H       1  ZINC000194290865    0.0900
     46 H46        -8.4885    0.4893   53.4331 H       1  ZINC000194290865    0.0900
     47 H47        -8.0047   -0.7989   52.3040 H       1  ZINC000194290865    0.0900
     48 H48       -10.6095    0.4119   54.5846 H       1  ZINC000194290865    0.1600
     49 H49       -13.6965   -3.1800   56.2184 H       1  ZINC000194290865    0.1100
     50 H50       -15.4687   -4.0632   53.8954 H       1  ZINC000194290865    0.0700
     51 H51       -16.0429   -3.4242   55.4543 H       1  ZINC000194290865    0.0700
     52 H52       -15.1171   -2.3788   54.3506 H       1  ZINC000194290865    0.0600
     53 H53       -13.1675   -5.5966   56.3877 H       1  ZINC000194290865    0.0600
     54 H54       -14.9043   -5.3033   56.6439 H       1  ZINC000194290865    0.0700
     55 H55       -14.3302   -5.9424   55.0850 H       1  ZINC000194290865    0.0600
     56 H56       -10.2075   -0.4323   57.4526 H       1  ZINC000194290865    0.0800
     57 H57       -10.5130   -2.1229   56.9630 H       1  ZINC000194290865    0.1000
@<TRIPOS>BOND
     1     1     2    1
     2     1    29    1
     3     1    30    1
     4     1    31    1
     5     2     3    1
     6     2    32    1
     7     2    33    1
     8     3     4    1
     9     4     5    2
    10     4     6    1
    11     6    28    1
    12     6     7    1
    13     6    10    1
    14     7     8    1
    15     7     9    1
    16     7    34    1
    17     8    35    1
    18     8    36    1
    19     8    37    1
    20     9    38    1
    21     9    39    1
    22     9    40    1
    23    10    11    1
    24    10    41    1
    25    10    42    1
    26    11    12    1
    27    11    43    1
    28    11    44    1
    29    12    13   am
    30    12    28    1
    31    13    14    2
    32    13    15    1
    33    15    21   ar
    34    15    16   ar
    35    16    24    1
    36    16    17   ar
    37    17    18   ar
    38    17    22    1
    39    18    19   ar
    40    19    20    1
    41    19    21   ar
    42    20    45    1
    43    20    46    1
    44    20    47    1
    45    21    48    1
    46    22    23    1
    47    23    24    2
    48    24    25    1
    49    25    26    1
    50    25    27    1
    51    25    49    1
    52    26    50    1
    53    26    51    1
    54    26    52    1
    55    27    53    1
    56    27    54    1
    57    27    55    1
    58    28    56    1
    59    28    57    1
@<TRIPOS>SUBSTRUCTURE
     1 ZINC000194290865        1 TEMP              0 ****  ****    0 ROOT


##########                                Name:    ZINC000898967786
##########                DOCK_Rotatable_Bonds:                   5
##########                         Heavy_Atoms:                  25
##########                    Molecular_Weight:             356.448
##########                DOCK_Rotatable_Bonds:                   5
##########                       Formal_Charge:        -2.38419e-07
##########                     HBond_Acceptors:                   7
##########                        HBond_Donors:                   1
##########                         Heavy_Atoms:                  25
##########                          Grid_Score:          -33.582024
##########                     Grid_vdw_energy:          -33.574615
##########                      Grid_es_energy:           -0.007409
##########           Internal_energy_repulsive:           11.210470

@<TRIPOS>MOLECULE
ZINC000898967786
 45 48 1 0 0
SMALL
USER_CHARGES


@<TRIPOS>ATOM
      1 C1        -13.8576   -5.3160   55.7359 C.3     1  ZINC000898967786   -0.0800
      2 C2        -12.9733   -4.3294   55.0176 C.2     1  ZINC000898967786    0.0900
      3 C3        -12.5945   -3.1214   55.4895 C.2     1  ZINC000898967786   -0.1000
      4 C4        -12.9760   -2.5203   56.8177 C.3     1  ZINC000898967786    0.2200
      5 N5        -11.7874   -2.4219   57.6685 N.am    1  ZINC000898967786   -0.7400
      6 C6        -11.6893   -1.4313   58.5773 C.2     1  ZINC000898967786    0.7100
      7 O7        -12.5872   -0.6195   58.6909 O.2     1  ZINC000898967786   -0.5800
      8 N8        -10.5958   -1.3408   59.3600 N.am    1  ZINC000898967786   -0.6300
      9 C9         -9.4965   -2.3117   59.2406 C.3     1  ZINC000898967786    0.0900
     10 C10        -9.1694   -2.8461   60.6396 C.3     1  ZINC000898967786    0.0500
     11 O11        -8.9508   -1.7451   61.5249 O.3     1  ZINC000898967786   -0.3700
     12 C12       -10.0916   -0.9022   61.7034 C.3     1  ZINC000898967786    0.1400
     13 H13       -10.9286   -1.4954   62.0717 H       1  ZINC000898967786    0.0700
     14 C14        -9.7660    0.1814   62.6988 C.2     1  ZINC000898967786   -0.1100
     15 C15       -10.3516    1.3797   62.6720 C.2     1  ZINC000898967786   -0.1800
     16 S16        -9.7218    2.3733   63.9795 S.3     1  ZINC000898967786    0.1100
     17 C17        -8.6675    1.0669   64.5045 C.2     1  ZINC000898967786   -0.2100
     18 C18        -8.8410    0.0068   63.7136 C.2     1  ZINC000898967786   -0.1300
     19 C19       -10.4634   -0.2648   60.3549 C.3     1  ZINC000898967786    0.0900
     20 N20       -11.7994   -2.5462   54.5360 N.pl3   1  ZINC000898967786   -0.3500
     21 C21       -11.1488   -1.3479   54.4764 C.2     1  ZINC000898967786    0.0600
     22 C22       -10.4138   -1.0182   53.3938 C.2     1  ZINC000898967786   -0.1400
     23 C23       -10.3090   -1.9067   52.3108 C.2     1  ZINC000898967786   -0.1000
     24 C24       -10.9524   -3.1043   52.3572 C.2     1  ZINC000898967786   -0.0800
     25 C25       -11.7157   -3.4342   53.4950 C.2     1  ZINC000898967786    0.2400
     26 N26       -12.4290   -4.5058   53.8114 N.2     1  ZINC000898967786   -0.4900
     27 H27       -13.2427   -5.9790   56.3445 H       1  ZINC000898967786    0.0800
     28 H28       -14.5562   -4.7782   56.3768 H       1  ZINC000898967786    0.0700
     29 H29       -14.4134   -5.9043   55.0058 H       1  ZINC000898967786    0.0800
     30 H30       -13.3933   -1.5258   56.6601 H       1  ZINC000898967786    0.1000
     31 H31       -13.7188   -3.1533   57.3031 H       1  ZINC000898967786    0.0700
     32 H32       -11.0710   -3.0696   57.5778 H       1  ZINC000898967786    0.4000
     33 H33        -9.8023   -3.1351   58.5953 H       1  ZINC000898967786    0.1100
     34 H34        -8.6182   -1.8218   58.8202 H       1  ZINC000898967786    0.0800
     35 H35       -10.0031   -3.4464   61.0041 H       1  ZINC000898967786    0.0600
     36 H36        -8.2702   -3.4605   60.5937 H       1  ZINC000898967786    0.1100
     37 H37       -11.0979    1.6921   61.9566 H       1  ZINC000898967786    0.1700
     38 H38        -7.9873    1.1142   65.3420 H       1  ZINC000898967786    0.1700
     39 H39        -8.2952   -0.9150   63.8498 H       1  ZINC000898967786    0.1400
     40 H40        -9.6816    0.4307   60.0497 H       1  ZINC000898967786    0.0800
     41 H41       -11.4111    0.2655   60.4483 H       1  ZINC000898967786    0.0900
     42 H42       -11.2232   -0.6572   55.3033 H       1  ZINC000898967786    0.1600
     43 H43        -9.9039   -0.0667   53.3596 H       1  ZINC000898967786    0.1500
     44 H44        -9.7207   -1.6400   51.4452 H       1  ZINC000898967786    0.1500
     45 H45       -10.8793   -3.7951   51.5302 H       1  ZINC000898967786    0.1500
@<TRIPOS>BOND
     1     1     2    1
     2     1    27    1
     3     1    28    1
     4     1    29    1
     5     2    26    1
     6     2     3    2
     7     3     4    1
     8     3    20    1
     9     4     5    1
    10     4    30    1
    11     4    31    1
    12     5     6   am
    13     5    32    1
    14     6     7    2
    15     6     8   am
    16     8    19    1
    17     8     9    1
    18     9    10    1
    19     9    33    1
    20     9    34    1
    21    10    11    1
    22    10    35    1
    23    10    36    1
    24    11    12    1
    25    12    13    1
    26    12    14    1
    27    12    19    1
    28    14    18    1
    29    14    15    2
    30    15    16    1
    31    15    37    1
    32    16    17    1
    33    17    18    2
    34    17    38    1
    35    18    39    1
    36    19    40    1
    37    19    41    1
    38    20    25    1
    39    20    21    1
    40    21    22    2
    41    21    42    1
    42    22    23    1
    43    22    43    1
    44    23    24    2
    45    23    44    1
    46    24    25    1
    47    24    45    1
    48    25    26    2
@<TRIPOS>SUBSTRUCTURE
     1 ZINC000898967786        1 TEMP              0 ****  ****    0 ROOT


##########                                Name:    ZINC000506156755
##########                DOCK_Rotatable_Bonds:                   7
##########                         Heavy_Atoms:                  30
##########                    Molecular_Weight:             400.434
##########                DOCK_Rotatable_Bonds:                   7
##########                       Formal_Charge:          -0.0200001
##########                     HBond_Acceptors:                   6
##########                        HBond_Donors:                   1
##########                         Heavy_Atoms:                  30
##########                          Grid_Score:          -33.533379
##########                     Grid_vdw_energy:          -32.369469
##########                      Grid_es_energy:           -1.163908
##########           Internal_energy_repulsive:           13.885188

@<TRIPOS>MOLECULE
ZINC000506156755
 50 53 1 0 0
SMALL
USER_CHARGES


@<TRIPOS>ATOM
      1 C1        -10.9230   -4.0070   53.3055 C.3     1  ZINC000506156755   -0.1600
      2 C2        -11.8296   -2.9149   53.8765 C.3     1  ZINC000506156755    0.1900
      3 H3        -11.2434   -2.0141   54.0582 H       1  ZINC000506156755    0.1000
      4 N4        -12.4174   -3.3774   55.1363 N.am    1  ZINC000506156755   -0.7200
      5 C5        -11.7508   -3.2038   56.2947 C.2     1  ZINC000506156755    0.5000
      6 O6        -10.6637   -2.6662   56.2941 O.2     1  ZINC000506156755   -0.5200
      7 C7        -12.3562   -3.6779   57.5907 C.3     1  ZINC000506156755    0.0900
      8 N8        -11.7025   -2.9989   58.7122 N.am    1  ZINC000506156755   -0.5600
      9 C9        -12.1879   -1.9053   59.3272 C.2     1  ZINC000506156755    0.5800
     10 O10       -13.2214   -1.3333   59.0450 O.2     1  ZINC000506156755   -0.4600
     11 C11       -11.2532   -1.5168   60.4044 C.ar    1  ZINC000506156755   -0.1400
     12 C12       -11.2294   -0.4997   61.3445 C.ar    1  ZINC000506156755   -0.0400
     13 C13       -10.1736   -0.4153   62.2393 C.ar    1  ZINC000506156755   -0.0900
     14 C14        -9.1461   -1.3384   62.1994 C.ar    1  ZINC000506156755   -0.0900
     15 C15        -9.1566   -2.3618   61.2640 C.ar    1  ZINC000506156755   -0.0400
     16 C16       -10.2049   -2.4586   60.3637 C.ar    1  ZINC000506156755   -0.1400
     17 C17       -10.5409   -3.3903   59.2663 C.2     1  ZINC000506156755    0.5800
     18 O18        -9.8781   -4.3477   58.9214 O.2     1  ZINC000506156755   -0.4600
     19 C19       -12.9287   -2.6088   52.8918 C.ar    1  ZINC000506156755   -0.1200
     20 C20       -14.1692   -3.1989   53.0351 C.ar    1  ZINC000506156755   -0.0800
     21 C21       -15.1783   -2.9182   52.1323 C.ar    1  ZINC000506156755   -0.1400
     22 C22       -14.9486   -2.0464   51.0841 C.ar    1  ZINC000506156755   -0.0800
     23 C23       -13.7096   -1.4534   50.9362 C.ar    1  ZINC000506156755   -0.1900
     24 C24       -12.6970   -1.7292   51.8437 C.ar    1  ZINC000506156755    0.1300
     25 O25       -11.4776   -1.1469   51.7008 O.3     1  ZINC000506156755   -0.2500
     26 C26       -11.2554    0.0327   52.3376 C.ar    1  ZINC000506156755    0.0800
     27 C27       -12.2840    0.6516   53.0334 C.ar    1  ZINC000506156755   -0.1400
     28 C28       -12.0553    1.8507   53.6798 C.ar    1  ZINC000506156755   -0.1000
     29 C29       -10.8027    2.4344   53.6339 C.ar    1  ZINC000506156755   -0.1200
     30 C30        -9.7760    1.8198   52.9411 C.ar    1  ZINC000506156755   -0.1000
     31 C31        -9.9977    0.6177   52.2978 C.ar    1  ZINC000506156755   -0.1200
     32 H32       -10.1280   -4.2283   54.0177 H       1  ZINC000506156755    0.0700
     33 H33       -11.5092   -4.9077   53.1239 H       1  ZINC000506156755    0.0600
     34 H34       -10.4856   -3.6629   52.3683 H       1  ZINC000506156755    0.0700
     35 H35       -13.2864   -3.8084   55.1366 H       1  ZINC000506156755    0.4000
     36 H36       -13.4220   -3.4494   57.5990 H       1  ZINC000506156755    0.1300
     37 H37       -12.2147   -4.7546   57.6854 H       1  ZINC000506156755    0.1300
     38 H38       -12.0295    0.2248   61.3800 H       1  ZINC000506156755    0.1400
     39 H39       -10.1540    0.3776   62.9723 H       1  ZINC000506156755    0.1400
     40 H40        -8.3289   -1.2619   62.9014 H       1  ZINC000506156755    0.1400
     41 H41        -8.3510   -3.0807   61.2377 H       1  ZINC000506156755    0.1400
     42 H42       -14.3512   -3.8807   53.8529 H       1  ZINC000506156755    0.1300
     43 H43       -16.1474   -3.3811   52.2459 H       1  ZINC000506156755    0.1300
     44 H44       -15.7382   -1.8290   50.3801 H       1  ZINC000506156755    0.1300
     45 H45       -13.5305   -0.7727   50.1171 H       1  ZINC000506156755    0.1300
     46 H46       -13.2626    0.1963   53.0694 H       1  ZINC000506156755    0.1300
     47 H47       -12.8558    2.3330   54.2213 H       1  ZINC000506156755    0.1300
     48 H48       -10.6261    3.3722   54.1396 H       1  ZINC000506156755    0.1300
     49 H49        -8.7984    2.2778   52.9068 H       1  ZINC000506156755    0.1300
     50 H50        -9.1954    0.1379   51.7571 H       1  ZINC000506156755    0.1300
@<TRIPOS>BOND
     1     1     2    1
     2     1    32    1
     3     1    33    1
     4     1    34    1
     5     2     3    1
     6     2     4    1
     7     2    19    1
     8     4     5   am
     9     4    35    1
    10     5     6    2
    11     5     7    1
    12     7     8    1
    13     7    36    1
    14     7    37    1
    15     8    17   am
    16     8     9   am
    17     9    10    2
    18     9    11    1
    19    11    16   ar
    20    11    12   ar
    21    12    13   ar
    22    12    38    1
    23    13    14   ar
    24    13    39    1
    25    14    15   ar
    26    14    40    1
    27    15    16   ar
    28    15    41    1
    29    16    17    1
    30    17    18    2
    31    19    24   ar
    32    19    20   ar
    33    20    21   ar
    34    20    42    1
    35    21    22   ar
    36    21    43    1
    37    22    23   ar
    38    22    44    1
    39    23    24   ar
    40    23    45    1
    41    24    25    1
    42    25    26    1
    43    26    31   ar
    44    26    27   ar
    45    27    28   ar
    46    27    46    1
    47    28    29   ar
    48    28    47    1
    49    29    30   ar
    50    29    48    1
    51    30    31   ar
    52    30    49    1
    53    31    50    1
@<TRIPOS>SUBSTRUCTURE
     1 ZINC000506156755        1 TEMP              0 ****  ****    0 ROOT


##########                                Name:    ZINC000771225867
##########                DOCK_Rotatable_Bonds:                   9
##########                         Heavy_Atoms:                  23
##########                    Molecular_Weight:             355.802
##########                DOCK_Rotatable_Bonds:                   9
##########                       Formal_Charge:        -3.12924e-07
##########                     HBond_Acceptors:                   9
##########                        HBond_Donors:                   3
##########                         Heavy_Atoms:                  23
##########                          Grid_Score:          -33.524509
##########                     Grid_vdw_energy:          -33.183323
##########                      Grid_es_energy:           -0.341187
##########           Internal_energy_repulsive:           14.419206

@<TRIPOS>MOLECULE
ZINC000771225867
 37 38 1 0 0
SMALL
USER_CHARGES


@<TRIPOS>ATOM
      1 C1        -12.7029   -3.0277   52.8626 C.3     1  ZINC000771225867    0.0400
      2 O2        -12.4749   -3.4963   54.1932 O.3     1  ZINC000771225867   -0.3600
      3 C3        -11.5780   -2.8154   54.9374 C.2     1  ZINC000771225867    0.5500
      4 O4        -10.9583   -1.8897   54.4473 O.2     1  ZINC000771225867   -0.4900
      5 C5        -11.3583   -3.1781   56.2877 C.2     1  ZINC000771225867   -0.3400
      6 C6        -11.9884   -4.1890   56.9654 C.2     1  ZINC000771225867    0.2700
      7 Cl7       -13.1911   -5.2087   56.2393 Cl      1  ZINC000771225867    0.0400
      8 N8        -11.6014   -4.3166   58.2094 N.2     1  ZINC000771225867   -0.5500
      9 C9        -10.6906   -3.4906   58.6389 C.2     1  ZINC000771225867    0.3400
     10 N10       -10.1731   -3.4880   59.9159 N.pl3   1  ZINC000771225867   -0.6700
     11 C11        -8.9431   -2.7472   60.2064 C.3     1  ZINC000771225867    0.1700
     12 C12        -9.2608   -1.5775   61.1019 C.ar    1  ZINC000771225867   -0.0800
     13 C13       -10.1673   -0.6184   60.6898 C.ar    1  ZINC000771225867   -0.1300
     14 C14       -10.4609    0.4561   61.5092 C.ar    1  ZINC000771225867   -0.0800
     15 C15        -9.8490    0.5737   62.7419 C.ar    1  ZINC000771225867   -0.2000
     16 C16        -8.9389   -0.3876   63.1579 C.ar    1  ZINC000771225867    0.1300
     17 O17        -8.3358   -0.2744   64.3704 O.3     1  ZINC000771225867   -0.2900
     18 C18        -8.8863    0.6780   65.2824 C.3     1  ZINC000771225867    0.0400
     19 C19        -8.2887    0.4679   66.6497 C.2     1  ZINC000771225867    0.5200
     20 N20        -8.7364   -0.5323   67.4345 N.am    1  ZINC000771225867   -0.8500
     21 O21        -7.4048    1.1988   67.0440 O.2     1  ZINC000771225867   -0.5200
     22 C22        -8.6502   -1.4674   62.3364 C.ar    1  ZINC000771225867   -0.1200
     23 S23       -10.2204   -2.4160   57.3960 S.3     1  ZINC000771225867    0.2200
     24 H24       -13.0692   -2.0017   52.8965 H       1  ZINC000771225867    0.0600
     25 H25       -11.7696   -3.0619   52.3004 H       1  ZINC000771225867    0.0600
     26 H26       -13.4437   -3.6621   52.3759 H       1  ZINC000771225867    0.1000
     27 H27       -10.6232   -3.9768   60.6226 H       1  ZINC000771225867    0.4200
     28 H28        -8.2322   -3.4050   60.7065 H       1  ZINC000771225867    0.0900
     29 H29        -8.5090   -2.3842   59.2748 H       1  ZINC000771225867    0.0900
     30 H30       -10.6465   -0.7084   59.7262 H       1  ZINC000771225867    0.1300
     31 H31       -11.1692    1.2041   61.1849 H       1  ZINC000771225867    0.1300
     32 H32       -10.0785    1.4133   63.3813 H       1  ZINC000771225867    0.1300
     33 H33        -8.6576    1.6862   64.9370 H       1  ZINC000771225867    0.1000
     34 H34        -9.9674    0.5483   65.3346 H       1  ZINC000771225867    0.1000
     35 H35        -8.3509   -0.6682   68.3141 H       1  ZINC000771225867    0.4000
     36 H36        -9.4441   -1.1161   67.1195 H       1  ZINC000771225867    0.4100
     37 H37        -7.9422   -2.2170   62.6578 H       1  ZINC000771225867    0.1400
@<TRIPOS>BOND
     1     1     2    1
     2     1    24    1
     3     1    25    1
     4     1    26    1
     5     2     3    1
     6     3     4    2
     7     3     5    1
     8     5    23    1
     9     5     6    2
    10     6     7    1
    11     6     8    1
    12     8     9    2
    13     9    10    1
    14     9    23    1
    15    10    11    1
    16    10    27    1
    17    11    12    1
    18    11    28    1
    19    11    29    1
    20    12    22   ar
    21    12    13   ar
    22    13    14   ar
    23    13    30    1
    24    14    15   ar
    25    14    31    1
    26    15    16   ar
    27    15    32    1
    28    16    17    1
    29    16    22   ar
    30    17    18    1
    31    18    19    1
    32    18    33    1
    33    18    34    1
    34    19    20   am
    35    19    21    2
    36    20    35    1
    37    20    36    1
    38    22    37    1
@<TRIPOS>SUBSTRUCTURE
     1 ZINC000771225867        1 TEMP              0 ****  ****    0 ROOT


##########                                Name:    ZINC000846412382
##########                DOCK_Rotatable_Bonds:                   6
##########                         Heavy_Atoms:                  26
##########                    Molecular_Weight:             370.475
##########                DOCK_Rotatable_Bonds:                   6
##########                       Formal_Charge:               -0.03
##########                     HBond_Acceptors:                   7
##########                        HBond_Donors:                   4
##########                         Heavy_Atoms:                  26
##########                          Grid_Score:          -33.522449
##########                     Grid_vdw_energy:          -33.156338
##########                      Grid_es_energy:           -0.366112
##########           Internal_energy_repulsive:           26.958099

@<TRIPOS>MOLECULE
ZINC000846412382
 48 50 1 0 0
SMALL
USER_CHARGES


@<TRIPOS>ATOM
      1 C1        -10.3340    1.2625   60.2471 C.3     1  ZINC000846412382   -0.1400
      2 C2         -9.6994    0.2938   61.2113 C.2     1  ZINC000846412382    0.0300
      3 C3         -9.2798   -0.9200   60.8324 C.2     1  ZINC000846412382   -0.2700
      4 C4         -9.3808   -1.4499   59.4670 C.2     1  ZINC000846412382    0.6000
      5 O5         -8.6757   -0.9970   58.5849 O.2     1  ZINC000846412382   -0.5200
      6 N6        -10.2546   -2.4381   59.1907 N.am    1  ZINC000846412382   -0.7100
      7 C7        -10.3567   -2.9658   57.8278 C.3     1  ZINC000846412382    0.1200
      8 H8         -9.4786   -2.6664   57.2556 H       1  ZINC000846412382    0.1000
      9 C9        -10.4372   -4.4929   57.8768 C.3     1  ZINC000846412382   -0.1700
     10 C10       -11.6152   -2.4099   57.1586 C.3     1  ZINC000846412382    0.1700
     11 C11       -11.5795   -2.7268   55.6622 C.3     1  ZINC000846412382   -0.1400
     12 O12       -11.6679   -0.9940   57.3445 O.3     1  ZINC000846412382   -0.5500
     13 C13       -12.8347   -3.0435   57.7772 C.ar    1  ZINC000846412382   -0.1200
     14 C14       -13.4940   -2.4077   58.8125 C.ar    1  ZINC000846412382   -0.1100
     15 C15       -14.6125   -2.9888   59.3800 C.ar    1  ZINC000846412382   -0.1200
     16 C16       -15.0722   -4.2055   58.9116 C.ar    1  ZINC000846412382   -0.1200
     17 C17       -14.4133   -4.8409   57.8756 C.ar    1  ZINC000846412382   -0.1200
     18 C18       -13.2973   -4.2577   57.3054 C.ar    1  ZINC000846412382   -0.1000
     19 S19        -8.5921   -1.7902   62.1930 S.3     1  ZINC000846412382    0.2000
     20 C20        -8.9017   -0.4401   63.2763 C.ar    1  ZINC000846412382    0.1400
     21 N21        -8.6580   -0.2818   64.5822 N.ar    1  ZINC000846412382   -0.5300
     22 C22        -8.9780    0.8314   65.2015 C.ar    1  ZINC000846412382    0.3900
     23 C23        -8.6806    0.9572   66.6734 C.3     1  ZINC000846412382   -0.0900
     24 N24        -9.5511    1.8443   64.5773 N.ar    1  ZINC000846412382   -0.5800
     25 C25        -9.8332    1.7851   63.2847 C.ar    1  ZINC000846412382    0.5100
     26 N26       -10.4324    2.8532   62.6483 N.pl3   1  ZINC000846412382   -0.8300
     27 C27        -9.5036    0.6044   62.5610 C.ar    1  ZINC000846412382   -0.2500
     28 H28        -9.5744    1.9440   59.8641 H       1  ZINC000846412382    0.0800
     29 H29       -10.7788    0.7115   59.4185 H       1  ZINC000846412382    0.1100
     30 H30       -11.1078    1.8326   60.7613 H       1  ZINC000846412382    0.0700
     31 H31       -10.8160   -2.8001   59.8942 H       1  ZINC000846412382    0.4000
     32 H32       -11.3154   -4.7922   58.4490 H       1  ZINC000846412382    0.0600
     33 H33       -10.5131   -4.8855   56.8628 H       1  ZINC000846412382    0.0800
     34 H34        -9.5406   -4.8889   58.3536 H       1  ZINC000846412382    0.0700
     35 H35       -11.5394   -3.8068   55.5203 H       1  ZINC000846412382    0.0700
     36 H36       -12.4761   -2.3308   55.1853 H       1  ZINC000846412382    0.0700
     37 H37       -10.6975   -2.2686   55.2147 H       1  ZINC000846412382    0.0700
     38 H38       -11.5482   -0.7132   58.2621 H       1  ZINC000846412382    0.3800
     39 H39       -13.1348   -1.4571   59.1784 H       1  ZINC000846412382    0.1300
     40 H40       -15.1272   -2.4924   60.1893 H       1  ZINC000846412382    0.1200
     41 H41       -15.9456   -4.6599   59.3554 H       1  ZINC000846412382    0.1200
     42 H42       -14.7722   -5.7916   57.5100 H       1  ZINC000846412382    0.1200
     43 H43       -12.7826   -4.7541   56.4960 H       1  ZINC000846412382    0.1300
     44 H44        -7.6833    1.3760   66.8082 H       1  ZINC000846412382    0.0900
     45 H45        -9.4162    1.6138   67.1379 H       1  ZINC000846412382    0.0900
     46 H46        -8.7272   -0.0273   67.1390 H       1  ZINC000846412382    0.0900
     47 H47       -10.9341    3.5049   63.1626 H       1  ZINC000846412382    0.4100
     48 H48       -10.3517    2.9522   61.6868 H       1  ZINC000846412382    0.4200
@<TRIPOS>BOND
     1     1     2    1
     2     1    28    1
     3     1    29    1
     4     1    30    1
     5     2    27    1
     6     2     3    2
     7     3     4    1
     8     3    19    1
     9     4     5    2
    10     4     6   am
    11     6     7    1
    12     6    31    1
    13     7     8    1
    14     7     9    1
    15     7    10    1
    16     9    32    1
    17     9    33    1
    18     9    34    1
    19    10    11    1
    20    10    12    1
    21    10    13    1
    22    11    35    1
    23    11    36    1
    24    11    37    1
    25    12    38    1
    26    13    18   ar
    27    13    14   ar
    28    14    15   ar
    29    14    39    1
    30    15    16   ar
    31    15    40    1
    32    16    17   ar
    33    16    41    1
    34    17    18   ar
    35    17    42    1
    36    18    43    1
    37    19    20    1
    38    20    27   ar
    39    20    21   ar
    40    21    22   ar
    41    22    23    1
    42    22    24   ar
    43    23    44    1
    44    23    45    1
    45    23    46    1
    46    24    25   ar
    47    25    26    1
    48    25    27   ar
    49    26    47    1
    50    26    48    1
@<TRIPOS>SUBSTRUCTURE
     1 ZINC000846412382        1 TEMP              0 ****  ****    0 ROOT


##########                                Name:    ZINC000123469372
##########                DOCK_Rotatable_Bonds:                   7
##########                         Heavy_Atoms:                  25
##########                    Molecular_Weight:             341.382
##########                DOCK_Rotatable_Bonds:                   7
##########                       Formal_Charge:          -0.0300001
##########                     HBond_Acceptors:                   5
##########                        HBond_Donors:                   2
##########                         Heavy_Atoms:                  25
##########                          Grid_Score:          -33.514114
##########                     Grid_vdw_energy:          -33.537140
##########                      Grid_es_energy:            0.023027
##########           Internal_energy_repulsive:           11.940806

@<TRIPOS>MOLECULE
ZINC000123469372
 45 47 1 0 0
SMALL
USER_CHARGES


@<TRIPOS>ATOM
      1 C1        -13.0332   -4.5568   56.1471 C.3     1  ZINC000123469372   -0.1700
      2 C2        -11.7892   -3.7139   55.8588 C.3     1  ZINC000123469372    0.1500
      3 H3        -10.9815   -4.3625   55.5195 H       1  ZINC000123469372    0.0900
      4 C4        -12.1099   -2.6869   54.7710 C.3     1  ZINC000123469372   -0.1600
      5 C5        -11.9434   -3.3334   53.3944 C.3     1  ZINC000123469372    0.1500
      6 H6        -12.1374   -4.4034   53.4696 H       1  ZINC000123469372    0.1100
      7 O7        -10.6093   -3.1229   52.9273 O.3     1  ZINC000123469372   -0.5500
      8 C8        -12.9181   -2.7129   52.4268 C.ar    1  ZINC000123469372   -0.1200
      9 C9        -14.2776   -2.8118   52.6565 C.ar    1  ZINC000123469372   -0.1100
     10 C10       -15.1717   -2.2426   51.7689 C.ar    1  ZINC000123469372   -0.1200
     11 C11       -14.7061   -1.5743   50.6520 C.ar    1  ZINC000123469372   -0.1200
     12 C12       -13.3466   -1.4746   50.4229 C.ar    1  ZINC000123469372   -0.1200
     13 C13       -12.4523   -2.0401   51.3127 C.ar    1  ZINC000123469372   -0.1100
     14 N14       -11.3766   -3.0186   57.0805 N.am    1  ZINC000123469372   -0.7100
     15 C15       -10.9037   -3.7213   58.1288 C.2     1  ZINC000123469372    0.5700
     16 O16       -10.8207   -4.9338   58.0611 O.2     1  ZINC000123469372   -0.5400
     17 C17       -10.4901   -3.0271   59.3477 C.2     1  ZINC000123469372   -0.2200
     18 C18       -11.2149   -1.9807   59.8148 C.2     1  ZINC000123469372    0.0000
     19 C19       -10.7424   -1.3061   61.0338 C.ar    1  ZINC000123469372   -0.1200
     20 C20       -11.5734   -0.4590   61.7654 C.ar    1  ZINC000123469372   -0.0900
     21 C21       -11.0870    0.1541   62.9043 C.ar    1  ZINC000123469372    0.0700
     22 F22       -11.8862    0.9761   63.6190 F       1  ZINC000123469372   -0.1400
     23 C23        -9.7821   -0.0711   63.3174 C.ar    1  ZINC000123469372   -0.1100
     24 C24        -8.9506   -0.9096   62.5977 C.ar    1  ZINC000123469372   -0.1200
     25 C25        -9.4205   -1.5319   61.4556 C.ar    1  ZINC000123469372    0.1300
     26 O26        -8.6294   -2.3591   60.7281 O.3     1  ZINC000123469372   -0.3000
     27 C27        -9.2602   -3.4755   60.0934 C.3     1  ZINC000123469372    0.1100
     28 H28       -13.3402   -5.0741   55.2382 H       1  ZINC000123469372    0.0700
     29 H29       -12.8047   -5.2884   56.9221 H       1  ZINC000123469372    0.0600
     30 H30       -13.8408   -3.9083   56.4865 H       1  ZINC000123469372    0.0600
     31 H31       -13.1370   -2.3418   54.8886 H       1  ZINC000123469372    0.0900
     32 H32       -11.4296   -1.8398   54.8593 H       1  ZINC000123469372    0.0800
     33 H33       -10.4515   -3.4455   52.0295 H       1  ZINC000123469372    0.3700
     34 H34       -14.6413   -3.3340   53.5290 H       1  ZINC000123469372    0.1200
     35 H35       -16.2339   -2.3205   51.9480 H       1  ZINC000123469372    0.1200
     36 H36       -15.4046   -1.1303   49.9583 H       1  ZINC000123469372    0.1200
     37 H37       -12.9829   -0.9527   49.5501 H       1  ZINC000123469372    0.1200
     38 H38       -11.3902   -1.9622   51.1337 H       1  ZINC000123469372    0.1200
     39 H39       -11.4439   -2.0525   57.1350 H       1  ZINC000123469372    0.4000
     40 H40       -12.1104   -1.6527   59.3079 H       1  ZINC000123469372    0.1500
     41 H41       -12.5894   -0.2829   61.4443 H       1  ZINC000123469372    0.1500
     42 H42        -9.4120    0.4130   64.2090 H       1  ZINC000123469372    0.1500
     43 H43        -7.9360   -1.0781   62.9270 H       1  ZINC000123469372    0.1500
     44 H44        -9.5371   -4.2105   60.8490 H       1  ZINC000123469372    0.0800
     45 H45        -8.5631   -3.9313   59.3901 H       1  ZINC000123469372    0.1100
@<TRIPOS>BOND
     1     1     2    1
     2     1    28    1
     3     1    29    1
     4     1    30    1
     5     2     3    1
     6     2     4    1
     7     2    14    1
     8     4     5    1
     9     4    31    1
    10     4    32    1
    11     5     6    1
    12     5     7    1
    13     5     8    1
    14     7    33    1
    15     8    13   ar
    16     8     9   ar
    17     9    10   ar
    18     9    34    1
    19    10    11   ar
    20    10    35    1
    21    11    12   ar
    22    11    36    1
    23    12    13   ar
    24    12    37    1
    25    13    38    1
    26    14    15   am
    27    14    39    1
    28    15    16    2
    29    15    17    1
    30    17    27    1
    31    17    18    2
    32    18    19    1
    33    18    40    1
    34    19    25   ar
    35    19    20   ar
    36    20    21   ar
    37    20    41    1
    38    21    22    1
    39    21    23   ar
    40    23    24   ar
    41    23    42    1
    42    24    25   ar
    43    24    43    1
    44    25    26    1
    45    26    27    1
    46    27    44    1
    47    27    45    1
@<TRIPOS>SUBSTRUCTURE
     1 ZINC000123469372        1 TEMP              0 ****  ****    0 ROOT


##########                                Name:    ZINC001015666108
##########                DOCK_Rotatable_Bonds:                   7
##########                         Heavy_Atoms:                  25
##########                    Molecular_Weight:             346.429
##########                DOCK_Rotatable_Bonds:                   7
##########                       Formal_Charge:          -0.0199997
##########                     HBond_Acceptors:                   7
##########                        HBond_Donors:                   1
##########                         Heavy_Atoms:                  25
##########                          Grid_Score:          -33.502689
##########                     Grid_vdw_energy:          -33.214733
##########                      Grid_es_energy:           -0.287956
##########           Internal_energy_repulsive:           21.397518

@<TRIPOS>MOLECULE
ZINC001015666108
 51 53 1 0 0
SMALL
USER_CHARGES


@<TRIPOS>ATOM
      1 C1         -8.0248    0.0272   52.1209 C.3     1  ZINC001015666108   -0.1400
      2 C2         -8.4361    1.4225   52.5953 C.3     1  ZINC001015666108   -0.0700
      3 C3         -8.6310    1.4078   54.0896 C.2     1  ZINC001015666108   -0.0700
      4 C4         -9.6525    0.8122   54.7724 C.2     1  ZINC001015666108   -0.0900
      5 C5        -10.7667    0.0664   54.1783 C.2     1  ZINC001015666108    0.6100
      6 O6        -11.0677    0.2477   53.0131 O.2     1  ZINC001015666108   -0.5100
      7 N7        -11.4573   -0.8200   54.9226 N.am    1  ZINC001015666108   -0.7200
      8 C8        -12.5715   -1.5637   54.3296 C.3     1  ZINC001015666108    0.1400
      9 H9        -13.1276   -0.9265   53.6420 H       1  ZINC001015666108    0.1100
     10 C10       -12.0477   -2.8184   53.5937 C.3     1  ZINC001015666108   -0.1300
     11 C11       -12.2406   -3.9414   54.6435 C.3     1  ZINC001015666108    0.0300
     12 N12       -13.5214   -3.5761   55.3008 N.3     1  ZINC001015666108   -0.5100
     13 C13       -13.6410   -4.2204   56.6155 C.3     1  ZINC001015666108    0.1700
     14 H14       -14.4249   -3.7285   57.1912 H       1  ZINC001015666108    0.0900
     15 C15       -13.9955   -5.6971   56.4293 C.3     1  ZINC001015666108   -0.1500
     16 C16       -12.3309   -4.1073   57.3515 C.2     1  ZINC001015666108    0.1900
     17 N17       -11.9025   -3.0691   58.0283 N.2     1  ZINC001015666108   -0.4800
     18 C18       -10.6961   -3.4217   58.5070 C.2     1  ZINC001015666108    0.1800
     19 C19        -9.7887   -2.5681   59.3550 C.3     1  ZINC001015666108    0.0000
     20 C20       -10.1640   -1.0951   59.1802 C.3     1  ZINC001015666108   -0.1500
     21 C21        -9.9438   -2.9630   60.8249 C.3     1  ZINC001015666108   -0.1500
     22 N22       -10.4568   -4.6338   58.1045 N.2     1  ZINC001015666108   -0.3800
     23 O23       -11.3862   -5.0480   57.4440 O.3     1  ZINC001015666108    0.1000
     24 C24       -13.5026   -2.1008   55.4322 C.3     1  ZINC001015666108    0.0300
     25 O25        -9.4571    1.0301   56.0895 O.3     1  ZINC001015666108   -0.1700
     26 C26        -8.3394    1.7478   56.2603 C.2     1  ZINC001015666108    0.0000
     27 C27        -7.7944    1.9985   55.0495 C.2     1  ZINC001015666108   -0.2200
     28 H28        -7.8838    0.0378   51.0401 H       1  ZINC001015666108    0.0600
     29 H29        -7.0924   -0.2613   52.6061 H       1  ZINC001015666108    0.0600
     30 H30        -8.8051   -0.6889   52.3785 H       1  ZINC001015666108    0.0500
     31 H31        -7.6557    2.1386   52.3377 H       1  ZINC001015666108    0.0900
     32 H32        -9.3686    1.7109   52.1101 H       1  ZINC001015666108    0.0700
     33 H33       -11.2167   -0.9654   55.8510 H       1  ZINC001015666108    0.4000
     34 H34       -12.6414   -3.0182   52.7016 H       1  ZINC001015666108    0.0900
     35 H35       -10.9939   -2.7047   53.3395 H       1  ZINC001015666108    0.0800
     36 H36       -12.3215   -4.9133   54.1566 H       1  ZINC001015666108    0.0800
     37 H37       -11.4233   -3.9382   55.3647 H       1  ZINC001015666108    0.0500
     38 H38       -13.2116   -6.1892   55.8535 H       1  ZINC001015666108    0.0800
     39 H39       -14.0843   -6.1753   57.4048 H       1  ZINC001015666108    0.0700
     40 H40       -14.9431   -5.7791   55.8970 H       1  ZINC001015666108    0.0800
     41 H41        -8.7544   -2.7186   59.0455 H       1  ZINC001015666108    0.1000
     42 H42       -11.1983   -0.9446   59.4896 H       1  ZINC001015666108    0.0600
     43 H43        -9.5077   -0.4777   59.7935 H       1  ZINC001015666108    0.0700
     44 H44       -10.0535   -0.8138   58.1330 H       1  ZINC001015666108    0.0600
     45 H45       -10.9781   -2.8124   61.1344 H       1  ZINC001015666108    0.0600
     46 H46        -9.6764   -4.0123   60.9494 H       1  ZINC001015666108    0.0600
     47 H47        -9.2875   -2.3455   61.4382 H       1  ZINC001015666108    0.0700
     48 H48       -13.1175   -1.8203   56.4125 H       1  ZINC001015666108    0.0600
     49 H49       -14.5086   -1.7033   55.2980 H       1  ZINC001015666108    0.1000
     50 H50        -7.9375    2.0696   57.2097 H       1  ZINC001015666108    0.2100
     51 H51        -6.8889    2.5545   54.8562 H       1  ZINC001015666108    0.1600
@<TRIPOS>BOND
     1     1     2    1
     2     1    28    1
     3     1    29    1
     4     1    30    1
     5     2     3    1
     6     2    31    1
     7     2    32    1
     8     3    27    1
     9     3     4    2
    10     4     5    1
    11     4    25    1
    12     5     6    2
    13     5     7   am
    14     7     8    1
    15     7    33    1
    16     8     9    1
    17     8    24    1
    18     8    10    1
    19    10    11    1
    20    10    34    1
    21    10    35    1
    22    11    12    1
    23    11    36    1
    24    11    37    1
    25    12    13    1
    26    12    24    1
    27    13    14    1
    28    13    15    1
    29    13    16    1
    30    15    38    1
    31    15    39    1
    32    15    40    1
    33    16    23    1
    34    16    17    2
    35    17    18    1
    36    18    19    1
    37    18    22    2
    38    19    20    1
    39    19    21    1
    40    19    41    1
    41    20    42    1
    42    20    43    1
    43    20    44    1
    44    21    45    1
    45    21    46    1
    46    21    47    1
    47    22    23    1
    48    24    48    1
    49    24    49    1
    50    25    26    1
    51    26    27    2
    52    26    50    1
    53    27    51    1
@<TRIPOS>SUBSTRUCTURE
     1 ZINC001015666108        1 TEMP              0 ****  ****    0 ROOT


##########                                Name:    ZINC000822206030
##########                DOCK_Rotatable_Bonds:                   7
##########                         Heavy_Atoms:                  29
##########                    Molecular_Weight:             391.448
##########                DOCK_Rotatable_Bonds:                   7
##########                       Formal_Charge:         -0.00999995
##########                     HBond_Acceptors:                   7
##########                        HBond_Donors:                   1
##########                         Heavy_Atoms:                  29
##########                          Grid_Score:          -33.489426
##########                     Grid_vdw_energy:          -30.319857
##########                      Grid_es_energy:           -3.169571
##########           Internal_energy_repulsive:           17.357798

@<TRIPOS>MOLECULE
ZINC000822206030
 51 55 1 0 0
SMALL
USER_CHARGES


@<TRIPOS>ATOM
      1 C1         -9.4037   -2.6871   60.2769 C.3     1  ZINC000822206030   -0.1300
      2 C2         -9.4992   -1.3966   61.0494 C.ar    1  ZINC000822206030   -0.0400
      3 C3         -9.0043   -1.3235   62.3364 C.ar    1  ZINC000822206030   -0.1500
      4 C4         -9.0923   -0.1380   63.0469 C.ar    1  ZINC000822206030    0.1100
      5 F5         -8.6078   -0.0686   64.3062 F       1  ZINC000822206030   -0.1400
      6 C6         -9.6757    0.9765   62.4683 C.ar    1  ZINC000822206030   -0.1500
      7 C7        -10.1720    0.9075   61.1810 C.ar    1  ZINC000822206030   -0.0800
      8 C8        -10.0800   -0.2785   60.4653 C.ar    1  ZINC000822206030    0.1100
      9 N9        -10.5821   -0.3504   59.1601 N.am    1  ZINC000822206030   -0.5600
     10 C10       -12.0196   -0.5235   58.9367 C.3     1  ZINC000822206030    0.1500
     11 C11       -12.7300   -0.5879   60.2642 C.ar    1  ZINC000822206030   -0.0900
     12 C12       -13.1851    0.5749   60.8593 C.ar    1  ZINC000822206030   -0.1000
     13 C13       -13.8367    0.5216   62.0748 C.ar    1  ZINC000822206030   -0.0800
     14 C14       -14.0358   -0.7060   62.7024 C.ar    1  ZINC000822206030   -0.0100
     15 C15       -14.7364   -0.7695   64.0097 C.2     1  ZINC000822206030    0.2200
     16 N16       -15.1645    0.2522   64.7240 N.2     1  ZINC000822206030   -0.2900
     17 N17       -15.7177   -0.2158   65.7897 N.pl3   1  ZINC000822206030   -0.2300
     18 N18       -15.6536   -1.5014   65.7733 N.2     1  ZINC000822206030   -0.0500
     19 N19       -15.0617   -1.8774   64.6907 N.2     1  ZINC000822206030   -0.2700
     20 C20       -13.5753   -1.8740   62.0988 C.ar    1  ZINC000822206030   -0.0800
     21 C21       -12.9296   -1.8099   60.8805 C.ar    1  ZINC000822206030   -0.0900
     22 C22        -9.7429   -0.2605   58.1093 C.2     1  ZINC000822206030    0.5500
     23 O23        -8.5530   -0.1158   58.2941 O.2     1  ZINC000822206030   -0.5000
     24 C24       -10.2830   -0.3399   56.7047 C.3     1  ZINC000822206030   -0.1900
     25 H25       -10.8438   -1.2438   56.4670 H       1  ZINC000822206030    0.1200
     26 C26        -9.4431    0.2843   55.5885 C.3     1  ZINC000822206030   -0.1400
     27 C27       -10.7351    0.9654   56.0468 C.3     1  ZINC000822206030   -0.0900
     28 H28       -11.5932    0.9202   55.3761 H       1  ZINC000822206030    0.1100
     29 C29       -10.6040    2.2518   56.8647 C.3     1  ZINC000822206030   -0.1100
     30 C30       -11.0571    3.5566   56.2067 C.3     1  ZINC000822206030   -0.2000
     31 C31       -11.8953    2.9317   57.3238 C.3     1  ZINC000822206030   -0.1200
     32 H32        -8.4634   -2.7121   59.7262 H       1  ZINC000822206030    0.0900
     33 H33        -9.4419   -3.5284   60.9688 H       1  ZINC000822206030    0.0700
     34 H34       -10.2366   -2.7540   59.5770 H       1  ZINC000822206030    0.0700
     35 H35        -8.5485   -2.1915   62.7894 H       1  ZINC000822206030    0.1400
     36 H36        -9.7430    1.9002   63.0239 H       1  ZINC000822206030    0.1400
     37 H37       -10.6273    1.7768   60.7302 H       1  ZINC000822206030    0.1400
     38 H38       -12.4018    0.3192   58.3605 H       1  ZINC000822206030    0.1000
     39 H39       -12.1930   -1.4484   58.3865 H       1  ZINC000822206030    0.0900
     40 H40       -13.0300    1.5262   60.3720 H       1  ZINC000822206030    0.1300
     41 H41       -14.1914    1.4300   62.5387 H       1  ZINC000822206030    0.1400
     42 H42       -16.1190    0.3171   66.4939 H       1  ZINC000822206030    0.4800
     43 H43       -13.7267   -2.8283   62.5812 H       1  ZINC000822206030    0.1300
     44 H44       -12.5723   -2.7148   60.4115 H       1  ZINC000822206030    0.1400
     45 H45        -8.5000    0.7524   55.8702 H       1  ZINC000822206030    0.1000
     46 H46        -9.4517   -0.2088   54.6164 H       1  ZINC000822206030    0.1000
     47 H47        -9.7455    2.2972   57.5349 H       1  ZINC000822206030    0.1000
     48 H48       -10.4966    4.4609   56.4438 H       1  ZINC000822206030    0.0900
     49 H49       -11.4486    3.4987   55.1912 H       1  ZINC000822206030    0.0900
     50 H50       -12.8384    2.4628   57.0430 H       1  ZINC000822206030    0.0800
     51 H51       -11.8864    3.4250   58.2957 H       1  ZINC000822206030    0.0900
@<TRIPOS>BOND
     1     1     2    1
     2     1    32    1
     3     1    33    1
     4     1    34    1
     5     2     8   ar
     6     2     3   ar
     7     3     4   ar
     8     3    35    1
     9     4     5    1
    10     4     6   ar
    11     6     7   ar
    12     6    36    1
    13     7     8   ar
    14     7    37    1
    15     8     9    1
    16     9    10    1
    17     9    22   am
    18    10    11    1
    19    10    38    1
    20    10    39    1
    21    11    21   ar
    22    11    12   ar
    23    12    13   ar
    24    12    40    1
    25    13    14   ar
    26    13    41    1
    27    14    15    1
    28    14    20   ar
    29    15    19    1
    30    15    16    2
    31    16    17    1
    32    17    18    1
    33    17    42    1
    34    18    19    2
    35    20    21   ar
    36    20    43    1
    37    21    44    1
    38    22    23    2
    39    22    24    1
    40    24    25    1
    41    24    27    1
    42    24    26    1
    43    26    27    1
    44    26    45    1
    45    26    46    1
    46    27    28    1
    47    27    29    1
    48    29    31    1
    49    29    30    1
    50    29    47    1
    51    30    31    1
    52    30    48    1
    53    30    49    1
    54    31    50    1
    55    31    51    1
@<TRIPOS>SUBSTRUCTURE
     1 ZINC000822206030        1 TEMP              0 ****  ****    0 ROOT


##########                                Name:    ZINC000482540246
##########                DOCK_Rotatable_Bonds:                  10
##########                         Heavy_Atoms:                  30
##########                    Molecular_Weight:              409.46
##########                DOCK_Rotatable_Bonds:                  10
##########                       Formal_Charge:         2.83122e-07
##########                     HBond_Acceptors:                   7
##########                        HBond_Donors:                   2
##########                         Heavy_Atoms:                  30
##########                          Grid_Score:          -33.484959
##########                     Grid_vdw_energy:          -32.062248
##########                      Grid_es_energy:           -1.422710
##########           Internal_energy_repulsive:           14.325268

@<TRIPOS>MOLECULE
ZINC000482540246
 54 56 1 0 0
SMALL
USER_CHARGES


@<TRIPOS>ATOM
      1 C1         -4.1357    2.3554   56.6284 C.3     1  ZINC000482540246    0.0400
      2 O2         -4.7456    3.4331   57.3418 O.3     1  ZINC000482540246   -0.3100
      3 C3         -6.0946    3.5461   57.2515 C.ar    1  ZINC000482540246    0.3300
      4 C4         -6.8020    2.6909   56.4167 C.ar    1  ZINC000482540246   -0.1800
      5 C5         -8.1780    2.8166   56.3335 C.ar    1  ZINC000482540246   -0.0100
      6 C6         -8.9823    1.9079   55.4398 C.3     1  ZINC000482540246    0.2000
      7 H7         -8.3159    1.1996   54.9477 H       1  ZINC000482540246    0.1000
      8 C8         -9.7083    2.7435   54.3836 C.3     1  ZINC000482540246   -0.1600
      9 N9         -9.9645    1.1767   56.2439 N.am    1  ZINC000482540246   -0.7400
     10 C10        -9.5625    0.1769   57.0535 C.2     1  ZINC000482540246    0.7100
     11 O11        -8.3848   -0.1192   57.1152 O.2     1  ZINC000482540246   -0.5800
     12 N12       -10.4660   -0.4948   57.7945 N.am    1  ZINC000482540246   -0.7400
     13 C13       -10.0288   -1.5804   58.6758 C.3     1  ZINC000482540246    0.2100
     14 H14        -9.0164   -1.8816   58.4066 H       1  ZINC000482540246    0.1200
     15 C15       -10.9738   -2.7738   58.5223 C.3     1  ZINC000482540246    0.0500
     16 O16       -10.5948   -3.5373   57.3754 O.3     1  ZINC000482540246   -0.3000
     17 C17       -11.5989   -4.0313   56.6034 C.ar    1  ZINC000482540246    0.1000
     18 C18       -12.4808   -4.9649   57.1251 C.ar    1  ZINC000482540246   -0.1800
     19 C19       -13.5014   -5.4654   56.3387 C.ar    1  ZINC000482540246   -0.0900
     20 C20       -13.6441   -5.0365   55.0325 C.ar    1  ZINC000482540246   -0.1300
     21 C21       -12.7661   -4.1054   54.5079 C.ar    1  ZINC000482540246   -0.1200
     22 C22       -11.7467   -3.5970   55.2919 C.ar    1  ZINC000482540246    0.0700
     23 F23       -10.8889   -2.6875   54.7798 F       1  ZINC000482540246   -0.1300
     24 C24       -10.0479   -1.1051   60.1058 C.ar    1  ZINC000482540246   -0.1000
     25 C25        -9.1123   -1.5816   61.0050 C.ar    1  ZINC000482540246   -0.0800
     26 C26        -9.1299   -1.1457   62.3167 C.ar    1  ZINC000482540246   -0.1200
     27 C27       -10.0828   -0.2330   62.7291 C.ar    1  ZINC000482540246   -0.1200
     28 C28       -11.0177    0.2441   61.8297 C.ar    1  ZINC000482540246   -0.1200
     29 C29       -10.9975   -0.1885   60.5168 C.ar    1  ZINC000482540246   -0.1000
     30 C30        -8.8000    3.7982   57.0920 C.ar    1  ZINC000482540246   -0.2100
     31 C31        -8.0337    4.6139   57.9010 C.ar    1  ZINC000482540246    0.1500
     32 N32        -6.7241    4.4663   57.9633 N.ar    1  ZINC000482540246   -0.5400
     33 H33        -3.0573    2.3801   56.7852 H       1  ZINC000482540246    0.1000
     34 H34        -4.5340    1.4079   56.9914 H       1  ZINC000482540246    0.0600
     35 H35        -4.3507    2.4562   55.5645 H       1  ZINC000482540246    0.0600
     36 H36        -6.2854    1.9380   55.8398 H       1  ZINC000482540246    0.1500
     37 H37       -10.3747    3.4518   54.8757 H       1  ZINC000482540246    0.0600
     38 H38        -8.9774    3.2875   53.7853 H       1  ZINC000482540246    0.0700
     39 H39       -10.2900    2.0862   53.7372 H       1  ZINC000482540246    0.0700
     40 H40       -10.9042    1.4120   56.1938 H       1  ZINC000482540246    0.4000
     41 H41       -11.4056   -0.2594   57.7444 H       1  ZINC000482540246    0.4000
     42 H42       -10.9146   -3.4007   59.4120 H       1  ZINC000482540246    0.0800
     43 H43       -11.9954   -2.4146   58.3982 H       1  ZINC000482540246    0.0800
     44 H44       -12.3703   -5.3013   58.1454 H       1  ZINC000482540246    0.1400
     45 H45       -14.1881   -6.1931   56.7453 H       1  ZINC000482540246    0.1300
     46 H46       -14.4423   -5.4293   54.4204 H       1  ZINC000482540246    0.1400
     47 H47       -12.8794   -3.7722   53.4869 H       1  ZINC000482540246    0.1400
     48 H48        -8.3679   -2.2946   60.6828 H       1  ZINC000482540246    0.1200
     49 H49        -8.3994   -1.5185   63.0195 H       1  ZINC000482540246    0.1200
     50 H50       -10.0968    0.1070   63.7541 H       1  ZINC000482540246    0.1200
     51 H51       -11.7624    0.9568   62.1518 H       1  ZINC000482540246    0.1200
     52 H52       -11.7280    0.1842   59.8141 H       1  ZINC000482540246    0.1200
     53 H53        -9.8720    3.9230   57.0500 H       1  ZINC000482540246    0.1400
     54 H54        -8.5128    5.3792   58.4934 H       1  ZINC000482540246    0.1600
@<TRIPOS>BOND
     1     1     2    1
     2     1    33    1
     3     1    34    1
     4     1    35    1
     5     2     3    1
     6     3    32   ar
     7     3     4   ar
     8     4     5   ar
     9     4    36    1
    10     5     6    1
    11     5    30   ar
    12     6     7    1
    13     6     8    1
    14     6     9    1
    15     8    37    1
    16     8    38    1
    17     8    39    1
    18     9    10   am
    19     9    40    1
    20    10    11    2
    21    10    12   am
    22    12    13    1
    23    12    41    1
    24    13    14    1
    25    13    15    1
    26    13    24    1
    27    15    16    1
    28    15    42    1
    29    15    43    1
    30    16    17    1
    31    17    22   ar
    32    17    18   ar
    33    18    19   ar
    34    18    44    1
    35    19    20   ar
    36    19    45    1
    37    20    21   ar
    38    20    46    1
    39    21    22   ar
    40    21    47    1
    41    22    23    1
    42    24    29   ar
    43    24    25   ar
    44    25    26   ar
    45    25    48    1
    46    26    27   ar
    47    26    49    1
    48    27    28   ar
    49    27    50    1
    50    28    29   ar
    51    28    51    1
    52    29    52    1
    53    30    31   ar
    54    30    53    1
    55    31    32   ar
    56    31    54    1
@<TRIPOS>SUBSTRUCTURE
     1 ZINC000482540246        1 TEMP              0 ****  ****    0 ROOT


##########                                Name:    ZINC001757264545
##########                DOCK_Rotatable_Bonds:                  11
##########                         Heavy_Atoms:                  25
##########                    Molecular_Weight:             344.497
##########                DOCK_Rotatable_Bonds:                  11
##########                       Formal_Charge:          0.00999946
##########                     HBond_Acceptors:                   4
##########                        HBond_Donors:                   2
##########                         Heavy_Atoms:                  25
##########                          Grid_Score:          -33.476898
##########                     Grid_vdw_energy:          -33.003868
##########                      Grid_es_energy:           -0.473030
##########           Internal_energy_repulsive:           13.051687

@<TRIPOS>MOLECULE
ZINC001757264545
 57 57 1 0 0
SMALL
USER_CHARGES


@<TRIPOS>ATOM
      1 C1        -10.2465   -4.8468   58.2731 C.1     1  ZINC001757264545   -0.2100
      2 C2         -9.8736   -4.3347   59.2616 C.1     1  ZINC001757264545   -0.1900
      3 C3         -9.4060   -3.6928   60.5009 C.3     1  ZINC001757264545   -0.0100
      4 C4         -9.2101   -2.1951   60.2568 C.3     1  ZINC001757264545   -0.1200
      5 C5        -10.5228   -1.5827   59.7643 C.3     1  ZINC001757264545   -0.1200
      6 C6        -10.2888   -0.1224   59.3723 C.3     1  ZINC001757264545   -0.1000
      7 C7         -9.6626   -0.0627   57.9776 C.3     1  ZINC001757264545   -0.1400
      8 C8        -10.7245   -0.3167   56.9389 C.2     1  ZINC001757264545    0.5100
      9 O9        -11.5280    0.5506   56.6685 O.2     1  ZINC001757264545   -0.5400
     10 N10       -10.7813   -1.5076   56.3104 N.am    1  ZINC001757264545   -0.7300
     11 C11       -11.8146   -1.7551   55.3019 C.3     1  ZINC001757264545    0.1400
     12 H12       -12.4859   -0.8978   55.2515 H       1  ZINC001757264545    0.1000
     13 C13       -12.6109   -3.0045   55.6835 C.3     1  ZINC001757264545   -0.1300
     14 C14       -13.6901   -3.2630   54.6302 C.3     1  ZINC001757264545   -0.1200
     15 C15       -13.0309   -3.4753   53.2660 C.3     1  ZINC001757264545   -0.1200
     16 C16       -12.2346   -2.2259   52.8844 C.3     1  ZINC001757264545   -0.1300
     17 C17       -11.1553   -1.9675   53.9376 C.3     1  ZINC001757264545    0.1400
     18 H18       -10.4842   -2.8248   53.9880 H       1  ZINC001757264545    0.1000
     19 N19       -10.3929   -0.7711   53.5722 N.am    1  ZINC001757264545   -0.7200
     20 C20        -9.4480   -0.8409   52.6137 C.2     1  ZINC001757264545    0.6400
     21 O21        -9.2293   -1.8967   52.0511 O.2     1  ZINC001757264545   -0.5200
     22 C22        -8.7015    0.3282   52.2576 C.1     1  ZINC001757264545   -0.2300
     23 C23        -8.0895    1.2866   51.9658 C.1     1  ZINC001757264545   -0.0500
     24 C24        -7.3221    2.4883   51.5998 C.3     1  ZINC001757264545    0.0300
     25 C25        -7.1341    3.3695   52.8363 C.3     1  ZINC001757264545   -0.1400
     26 C26        -5.9534    2.0733   51.0564 C.3     1  ZINC001757264545   -0.1400
     27 C27        -8.0812    3.2709   50.5265 C.3     1  ZINC001757264545   -0.1400
     28 H28       -10.5801   -5.3046   57.3890 H       1  ZINC001757264545    0.2200
     29 H29        -8.4591   -4.1381   60.8059 H       1  ZINC001757264545    0.0900
     30 H30       -10.1464   -3.8390   61.2874 H       1  ZINC001757264545    0.0900
     31 H31        -8.4356   -2.0479   59.5041 H       1  ZINC001757264545    0.0700
     32 H32        -8.9099   -1.7117   61.1865 H       1  ZINC001757264545    0.0700
     33 H33       -11.2670   -1.6306   60.5593 H       1  ZINC001757264545    0.0700
     34 H34       -10.8806   -2.1387   58.8978 H       1  ZINC001757264545    0.0700
     35 H35        -9.6167    0.3441   60.0926 H       1  ZINC001757264545    0.0700
     36 H36       -11.2404    0.4092   59.3664 H       1  ZINC001757264545    0.0700
     37 H37        -8.8851   -0.8223   57.8956 H       1  ZINC001757264545    0.0900
     38 H38        -9.2259    0.9230   57.8174 H       1  ZINC001757264545    0.0900
     39 H39       -10.1379   -2.2008   56.5258 H       1  ZINC001757264545    0.4000
     40 H40       -11.9397   -3.8618   55.7339 H       1  ZINC001757264545    0.0700
     41 H41       -13.0806   -2.8532   56.6554 H       1  ZINC001757264545    0.0800
     42 H42       -14.2575   -4.1531   54.9021 H       1  ZINC001757264545    0.0700
     43 H43       -14.3614   -2.4057   54.5798 H       1  ZINC001757264545    0.0700
     44 H44       -13.7997   -3.6595   52.5157 H       1  ZINC001757264545    0.0700
     45 H45       -12.3596   -4.3327   53.3164 H       1  ZINC001757264545    0.0700
     46 H46       -12.9058   -1.3685   52.8340 H       1  ZINC001757264545    0.0700
     47 H47       -11.7649   -2.3772   51.9124 H       1  ZINC001757264545    0.0800
     48 H48       -10.5680    0.0713   54.0201 H       1  ZINC001757264545    0.4000
     49 H49        -6.5933    2.8119   53.6010 H       1  ZINC001757264545    0.0600
     50 H50        -6.5659    4.2593   52.5653 H       1  ZINC001757264545    0.0700
     51 H51        -8.1092    3.6650   53.2235 H       1  ZINC001757264545    0.0600
     52 H52        -6.0873    1.4456   50.1755 H       1  ZINC001757264545    0.0600
     53 H53        -5.3851    2.9631   50.7853 H       1  ZINC001757264545    0.0700
     54 H54        -5.4126    1.5158   51.8211 H       1  ZINC001757264545    0.0600
     55 H55        -9.0564    3.5664   50.9137 H       1  ZINC001757264545    0.0600
     56 H56        -7.5129    4.1607   50.2554 H       1  ZINC001757264545    0.0700
     57 H57        -8.2152    2.6430   49.6455 H       1  ZINC001757264545    0.0600
@<TRIPOS>BOND
     1     1     2    3
     2     1    28    1
     3     2     3    1
     4     3     4    1
     5     3    29    1
     6     3    30    1
     7     4     5    1
     8     4    31    1
     9     4    32    1
    10     5     6    1
    11     5    33    1
    12     5    34    1
    13     6     7    1
    14     6    35    1
    15     6    36    1
    16     7     8    1
    17     7    37    1
    18     7    38    1
    19     8     9    2
    20     8    10   am
    21    10    11    1
    22    10    39    1
    23    11    12    1
    24    11    17    1
    25    11    13    1
    26    13    14    1
    27    13    40    1
    28    13    41    1
    29    14    15    1
    30    14    42    1
    31    14    43    1
    32    15    16    1
    33    15    44    1
    34    15    45    1
    35    16    17    1
    36    16    46    1
    37    16    47    1
    38    17    18    1
    39    17    19    1
    40    19    20   am
    41    19    48    1
    42    20    21    2
    43    20    22    1
    44    22    23    3
    45    23    24    1
    46    24    25    1
    47    24    26    1
    48    24    27    1
    49    25    49    1
    50    25    50    1
    51    25    51    1
    52    26    52    1
    53    26    53    1
    54    26    54    1
    55    27    55    1
    56    27    56    1
    57    27    57    1
@<TRIPOS>SUBSTRUCTURE
     1 ZINC001757264545        1 TEMP              0 ****  ****    0 ROOT


##########                                Name:    ZINC000350493047
##########                DOCK_Rotatable_Bonds:                   7
##########                         Heavy_Atoms:                  24
##########                    Molecular_Weight:             330.387
##########                DOCK_Rotatable_Bonds:                   7
##########                       Formal_Charge:          -0.0300002
##########                     HBond_Acceptors:                   7
##########                        HBond_Donors:                   3
##########                         Heavy_Atoms:                  24
##########                          Grid_Score:          -33.474716
##########                     Grid_vdw_energy:          -32.030308
##########                      Grid_es_energy:           -1.444408
##########           Internal_energy_repulsive:            5.989265

@<TRIPOS>MOLECULE
ZINC000350493047
 46 48 1 0 0
SMALL
USER_CHARGES


@<TRIPOS>ATOM
      1 C1         -9.5500    1.4730   63.3034 C.3     1  <0>        -0.1600
      2 C2         -9.5014    0.0406   63.8389 C.3     1  <0>         0.2600
      3 H3        -10.3989   -0.1589   64.4244 H       1  <0>         0.1200
      4 N4         -8.3184   -0.1238   64.6872 N.am    1  <0>        -0.7400
      5 C5         -8.3618    0.2439   65.9830 C.2     1  <0>         0.7100
      6 N6         -7.2739    0.0912   66.7638 N.am    1  <0>        -0.8600
      7 O7         -9.3825    0.7136   66.4477 O.2     1  <0>        -0.5900
      8 C8         -9.4299   -0.9253   62.6843 C.2     1  <0>         0.1700
      9 N9         -8.4527   -1.7439   62.4277 N.2     1  <0>        -0.3800
     10 O10        -8.6914   -2.3908   61.4299 O.3     1  <0>         0.0900
     11 C11        -9.8873   -2.0347   60.9353 C.2     1  <0>         0.2400
     12 C12       -10.5431   -2.5840   59.7318 C.ar    1  <0>        -0.0800
     13 C13        -9.9958   -3.6915   59.0799 C.ar    1  <0>        -0.0200
     14 C14       -10.6107   -4.2011   57.9573 C.ar    1  <0>        -0.2200
     15 C15       -11.7735   -3.6144   57.4731 C.ar    1  <0>         0.1700
     16 O16       -12.3762   -4.1193   56.3662 O.3     1  <0>        -0.3000
     17 C17       -12.5037   -3.2467   55.2418 C.3     1  <0>         0.0800
     18 C18       -11.1185   -2.9609   54.6585 C.3     1  <0>        -0.1500
     19 C19       -11.2550   -2.0267   53.4545 C.3     1  <0>        -0.1200
     20 C20       -12.1295   -2.6915   52.3896 C.3     1  <0>        -0.1300
     21 C21       -13.5148   -2.9774   52.9729 C.3     1  <0>        -0.1200
     22 C22       -13.3783   -3.9117   54.1769 C.3     1  <0>        -0.1200
     23 C23       -12.3212   -2.5129   58.1189 C.ar    1  <0>        -0.1600
     24 C24       -11.7157   -2.0010   59.2455 C.ar    1  <0>        -0.0300
     25 N25       -10.3658   -1.1000   61.7385 N.2     1  <0>        -0.4700
     26 H26        -8.6525    1.6725   62.7178 H       1  <0>         0.0600
     27 H27       -10.4301    1.5953   62.6722 H       1  <0>         0.0700
     28 H28        -9.6016    2.1715   64.1384 H       1  <0>         0.0800
     29 H29        -7.5037   -0.4975   64.3162 H       1  <0>         0.4000
     30 H30        -7.3057    0.3549   67.6967 H       1  <0>         0.4000
     31 H31        -6.4593   -0.2824   66.3929 H       1  <0>         0.4200
     32 H32        -9.0916   -4.1476   59.4552 H       1  <0>         0.1400
     33 H33       -10.1882   -5.0573   57.4527 H       1  <0>         0.1400
     34 H34       -12.9648   -2.3111   55.5583 H       1  <0>         0.0800
     35 H35       -10.4955   -2.4872   55.4172 H       1  <0>         0.0700
     36 H36       -10.6574   -3.8965   54.3419 H       1  <0>         0.0800
     37 H37       -11.7161   -1.0911   53.7711 H       1  <0>         0.0600
     38 H38       -10.2681   -1.8230   53.0389 H       1  <0>         0.0700
     39 H39       -12.2267   -2.0259   51.5319 H       1  <0>         0.0700
     40 H40       -11.6685   -3.6271   52.0730 H       1  <0>         0.0700
     41 H41       -13.9758   -2.0418   53.2895 H       1  <0>         0.0700
     42 H42       -14.1377   -3.4511   52.2143 H       1  <0>         0.0700
     43 H43       -12.9172   -4.8473   53.8603 H       1  <0>         0.0800
     44 H44       -14.3651   -4.1153   54.5924 H       1  <0>         0.0700
     45 H45       -13.2255   -2.0600   57.7397 H       1  <0>         0.1400
     46 H46       -12.1423   -1.1450   59.7471 H       1  <0>         0.1400
@<TRIPOS>BOND
     1     1     2    1
     2     1    26    1
     3     1    27    1
     4     1    28    1
     5     2     3    1
     6     2     4    1
     7     2     8    1
     8     4     5   am
     9     4    29    1
    10     5     6   am
    11     5     7    2
    12     6    30    1
    13     6    31    1
    14     8    25    1
    15     8     9    2
    16     9    10    1
    17    10    11    1
    18    11    12    1
    19    11    25    2
    20    12    24   ar
    21    12    13   ar
    22    13    14   ar
    23    13    32    1
    24    14    15   ar
    25    14    33    1
    26    15    16    1
    27    15    23   ar
    28    16    17    1
    29    17    22    1
    30    17    18    1
    31    17    34    1
    32    18    19    1
    33    18    35    1
    34    18    36    1
    35    19    20    1
    36    19    37    1
    37    19    38    1
    38    20    21    1
    39    20    39    1
    40    20    40    1
    41    21    22    1
    42    21    41    1
    43    21    42    1
    44    22    43    1
    45    22    44    1
    46    23    24   ar
    47    23    45    1
    48    24    46    1
@<TRIPOS>SUBSTRUCTURE
     1 <0>         1 TEMP              0 ****  ****    0 ROOT


##########                                Name:    ZINC001045438664
##########                DOCK_Rotatable_Bonds:                   6
##########                         Heavy_Atoms:                  26
##########                    Molecular_Weight:             352.439
##########                DOCK_Rotatable_Bonds:                   6
##########                       Formal_Charge:          -0.0099999
##########                     HBond_Acceptors:                   7
##########                        HBond_Donors:                   2
##########                         Heavy_Atoms:                  26
##########                          Grid_Score:          -33.466534
##########                     Grid_vdw_energy:          -32.006767
##########                      Grid_es_energy:           -1.459766
##########           Internal_energy_repulsive:           10.067789

@<TRIPOS>MOLECULE
ZINC001045438664
 50 53 1 0 0
SMALL
USER_CHARGES


@<TRIPOS>ATOM
      1 C1         -9.0107   -3.4503   60.0154 C.3     1  ZINC001045438664   -0.1100
      2 C2         -9.8623   -3.1978   58.7980 C.ar    1  ZINC001045438664    0.2100
      3 C3         -9.7165   -2.0318   58.0729 C.ar    1  ZINC001045438664   -0.3000
      4 C4        -10.5278   -1.8424   56.9520 C.ar    1  ZINC001045438664    0.4500
      5 N5        -10.4194   -0.6897   56.1913 N.pl3   1  ZINC001045438664   -0.7100
      6 C6         -9.9330    0.5491   56.8038 C.3     1  ZINC001045438664    0.1500
      7 H7         -8.9172    0.3990   57.1697 H       1  ZINC001045438664    0.0900
      8 C8        -10.8441    0.9327   57.9714 C.3     1  ZINC001045438664   -0.1300
      9 C9        -10.3361    2.2263   58.6111 C.3     1  ZINC001045438664   -0.1200
     10 C10       -10.3427    3.3470   57.5696 C.3     1  ZINC001045438664   -0.1200
     11 C11        -9.4315    2.9634   56.4019 C.3     1  ZINC001045438664   -0.1300
     12 C12        -9.9396    1.6697   55.7622 C.3     1  ZINC001045438664    0.1400
     13 H13       -10.9552    1.8198   55.3964 H       1  ZINC001045438664    0.1000
     14 N14        -9.0671    1.3024   54.6442 N.am    1  ZINC001045438664   -0.7200
     15 C15        -9.2671    1.8451   53.4268 C.2     1  ZINC001045438664    0.5700
     16 O16       -10.1724    2.6382   53.2562 O.2     1  ZINC001045438664   -0.5200
     17 C17        -8.3856    1.4758   52.2990 C.ar    1  ZINC001045438664   -0.2500
     18 C18        -8.3064    2.2780   51.1550 C.ar    1  ZINC001045438664    0.1900
     19 N19        -7.5049    1.9103   50.1707 N.ar    1  ZINC001045438664   -0.5200
     20 C20        -6.7877    0.8070   50.2559 C.ar    1  ZINC001045438664    0.3200
     21 N21        -6.8324    0.0223   51.3147 N.ar    1  ZINC001045438664   -0.5200
     22 C22        -7.6024    0.3170   52.3475 C.ar    1  ZINC001045438664    0.2100
     23 N23       -11.4056   -2.7867   56.6262 N.ar    1  ZINC001045438664   -0.5800
     24 C24       -11.5109   -3.8845   57.3473 C.ar    1  ZINC001045438664    0.4000
     25 C25       -12.5176   -4.9314   56.9451 C.3     1  ZINC001045438664   -0.1100
     26 C26       -13.9231   -4.8254   57.5403 C.3     1  ZINC001045438664   -0.1500
     27 C27       -13.6885   -4.4851   56.0672 C.3     1  ZINC001045438664   -0.1500
     28 N28       -10.7567   -4.0950   58.4072 N.ar    1  ZINC001045438664   -0.5600
     29 H29        -8.0952   -3.9620   59.7186 H       1  ZINC001045438664    0.0800
     30 H30        -8.7593   -2.5000   60.4865 H       1  ZINC001045438664    0.0800
     31 H31        -9.5615   -4.0715   60.7217 H       1  ZINC001045438664    0.0800
     32 H32        -8.9935   -1.2848   58.3655 H       1  ZINC001045438664    0.1400
     33 H33       -10.6657   -0.7028   55.2531 H       1  ZINC001045438664    0.4100
     34 H34       -11.8599    1.0827   57.6056 H       1  ZINC001045438664    0.0700
     35 H35       -10.8394    0.1342   58.7135 H       1  ZINC001045438664    0.0700
     36 H36       -10.9853    2.4997   59.4429 H       1  ZINC001045438664    0.0700
     37 H37        -9.3204    2.0762   58.9769 H       1  ZINC001045438664    0.0700
     38 H38       -11.3584    3.4971   57.2037 H       1  ZINC001045438664    0.0700
     39 H39        -9.9807    4.2687   58.0252 H       1  ZINC001045438664    0.0700
     40 H40        -9.4362    3.7619   55.6598 H       1  ZINC001045438664    0.0800
     41 H41        -8.4158    2.8133   56.7677 H       1  ZINC001045438664    0.0700
     42 H42        -8.3455    0.6686   54.7800 H       1  ZINC001045438664    0.4000
     43 H43        -8.8909    3.1829   51.0777 H       1  ZINC001045438664    0.1700
     44 H44        -6.1434    0.5373   49.4322 H       1  ZINC001045438664    0.2100
     45 H45        -7.6335   -0.3307   53.2112 H       1  ZINC001045438664    0.1800
     46 H46       -12.1155   -5.9306   56.7779 H       1  ZINC001045438664    0.1300
     47 H47       -14.4459   -5.7551   57.7649 H       1  ZINC001045438664    0.1000
     48 H48       -14.1197   -3.9986   58.2227 H       1  ZINC001045438664    0.1100
     49 H49       -13.7307   -3.4343   55.7805 H       1  ZINC001045438664    0.1000
     50 H50       -14.0569   -5.1909   55.3227 H       1  ZINC001045438664    0.1000
@<TRIPOS>BOND
     1     1     2    1
     2     1    29    1
     3     1    30    1
     4     1    31    1
     5     2    28   ar
     6     2     3   ar
     7     3     4   ar
     8     3    32    1
     9     4     5    1
    10     4    23   ar
    11     5     6    1
    12     5    33    1
    13     6     7    1
    14     6    12    1
    15     6     8    1
    16     8     9    1
    17     8    34    1
    18     8    35    1
    19     9    10    1
    20     9    36    1
    21     9    37    1
    22    10    11    1
    23    10    38    1
    24    10    39    1
    25    11    12    1
    26    11    40    1
    27    11    41    1
    28    12    13    1
    29    12    14    1
    30    14    15   am
    31    14    42    1
    32    15    16    2
    33    15    17    1
    34    17    22   ar
    35    17    18   ar
    36    18    19   ar
    37    18    43    1
    38    19    20   ar
    39    20    21   ar
    40    20    44    1
    41    21    22   ar
    42    22    45    1
    43    23    24   ar
    44    24    25    1
    45    24    28   ar
    46    25    27    1
    47    25    26    1
    48    25    46    1
    49    26    27    1
    50    26    47    1
    51    26    48    1
    52    27    49    1
    53    27    50    1
@<TRIPOS>SUBSTRUCTURE
     1 ZINC001045438664        1 TEMP              0 ****  ****    0 ROOT


##########                                Name:    ZINC000474368324
##########                DOCK_Rotatable_Bonds:                   9
##########                         Heavy_Atoms:                  27
##########                    Molecular_Weight:             417.332
##########                DOCK_Rotatable_Bonds:                   9
##########                       Formal_Charge:        -1.63913e-07
##########                     HBond_Acceptors:                   8
##########                        HBond_Donors:                   1
##########                         Heavy_Atoms:                  27
##########                          Grid_Score:          -33.460075
##########                     Grid_vdw_energy:          -32.511696
##########                      Grid_es_energy:           -0.948379
##########           Internal_energy_repulsive:           26.246078

@<TRIPOS>MOLECULE
ZINC000474368324
 53 54 1 0 0
SMALL
USER_CHARGES


@<TRIPOS>ATOM
      1 C1        -12.8962    3.5637   50.3089 C.3     1  ZINC000474368324   -0.1500
      2 C2        -14.0052    2.5979   49.8868 C.3     1  ZINC000474368324    0.0600
      3 O3        -13.5704    1.2316   50.1160 O.3     1  ZINC000474368324   -0.3300
      4 C4        -13.6834    0.7579   51.3668 C.2     1  ZINC000474368324    0.4700
      5 O5        -13.9930    1.5003   52.2684 O.2     1  ZINC000474368324   -0.5100
      6 C6        -13.4241   -0.7001   51.6466 C.3     1  ZINC000474368324   -0.0400
      7 C7        -13.5739   -1.5020   50.3522 C.3     1  ZINC000474368324    0.0600
      8 O8        -14.9285   -1.4328   49.9029 O.3     1  ZINC000474368324   -0.3700
      9 C9        -15.1563   -2.0676   48.6431 C.3     1  ZINC000474368324    0.0300
     10 C10       -12.0035   -0.8702   52.1900 C.3     1  ZINC000474368324   -0.1200
     11 C11       -11.7316   -2.3568   52.4406 C.3     1  ZINC000474368324    0.1100
     12 N12       -12.7817   -2.8879   53.3202 N.am    1  ZINC000474368324   -0.6300
     13 C13       -12.4619   -3.5363   54.4576 C.2     1  ZINC000474368324    0.7100
     14 O14       -11.2949   -3.6865   54.7643 O.2     1  ZINC000474368324   -0.5800
     15 N15       -13.4356   -4.0184   55.2551 N.am    1  ZINC000474368324   -0.7400
     16 C16       -13.0880   -4.7232   56.4914 C.3     1  ZINC000474368324    0.2000
     17 H17       -12.3568   -5.5014   56.2728 H       1  ZINC000474368324    0.1100
     18 C18       -14.3459   -5.3583   57.0873 C.3     1  ZINC000474368324   -0.1600
     19 C19       -12.5023   -3.7468   57.4787 C.ar    1  ZINC000474368324   -0.0700
     20 C20       -13.1250   -2.5335   57.7029 C.ar    1  ZINC000474368324   -0.1000
     21 C21       -12.5886   -1.6373   58.6089 C.ar    1  ZINC000474368324   -0.0900
     22 C22       -11.4292   -1.9537   59.2913 C.ar    1  ZINC000474368324   -0.1000
     23 C23       -10.8045   -3.1678   59.0681 C.ar    1  ZINC000474368324   -0.0300
     24 Cl24       -9.3482   -3.5657   59.9250 Cl      1  ZINC000474368324   -0.0400
     25 C25       -11.3446   -4.0674   58.1648 C.ar    1  ZINC000474368324   -0.0300
     26 Cl26      -10.5623   -5.5915   57.8840 Cl      1  ZINC000474368324   -0.0400
     27 C27       -14.1874   -2.6983   52.9366 C.3     1  ZINC000474368324    0.1300
     28 C28       -14.4318   -1.2078   52.6805 C.3     1  ZINC000474368324   -0.1200
     29 H29       -13.2226    4.5893   50.1368 H       1  ZINC000474368324    0.0800
     30 H30       -12.6771    3.4249   51.3676 H       1  ZINC000474368324    0.0700
     31 H31       -11.9988    3.3649   49.7230 H       1  ZINC000474368324    0.0700
     32 H32       -14.9026    2.7967   50.4727 H       1  ZINC000474368324    0.0700
     33 H33       -14.2243    2.7366   48.8281 H       1  ZINC000474368324    0.0700
     34 H34       -12.9162   -1.0861   49.5890 H       1  ZINC000474368324    0.0700
     35 H35       -13.3048   -2.5422   50.5361 H       1  ZINC000474368324    0.0600
     36 H36       -14.5397   -1.5925   47.8801 H       1  ZINC000474368324    0.0400
     37 H37       -14.8951   -3.1234   48.7157 H       1  ZINC000474368324    0.0400
     38 H38       -16.2077   -1.9713   48.3724 H       1  ZINC000474368324    0.0900
     39 H39       -11.2876   -0.4869   51.4629 H       1  ZINC000474368324    0.1000
     40 H40       -11.9034   -0.3193   53.1251 H       1  ZINC000474368324    0.0800
     41 H41       -11.7421   -2.8951   51.4928 H       1  ZINC000474368324    0.0800
     42 H42       -10.7596   -2.4748   52.9195 H       1  ZINC000474368324    0.0800
     43 H43       -14.3666   -3.8986   55.0104 H       1  ZINC000474368324    0.3900
     44 H44       -15.0772   -4.5801   57.3060 H       1  ZINC000474368324    0.0600
     45 H45       -14.7696   -6.0646   56.3733 H       1  ZINC000474368324    0.0700
     46 H46       -14.0873   -5.8828   58.0073 H       1  ZINC000474368324    0.0700
     47 H47       -14.0309   -2.2852   57.1699 H       1  ZINC000474368324    0.1300
     48 H48       -13.0758   -0.6893   58.7831 H       1  ZINC000474368324    0.1400
     49 H49       -11.0105   -1.2530   59.9986 H       1  ZINC000474368324    0.1500
     50 H50       -14.3981   -3.2644   52.0293 H       1  ZINC000474368324    0.0700
     51 H51       -14.8357   -3.0416   53.7428 H       1  ZINC000474368324    0.1100
     52 H52       -14.3087   -0.6539   53.6111 H       1  ZINC000474368324    0.0900
     53 H53       -15.4441   -1.0649   52.3026 H       1  ZINC000474368324    0.0900
@<TRIPOS>BOND
     1     1     2    1
     2     1    29    1
     3     1    30    1
     4     1    31    1
     5     2     3    1
     6     2    32    1
     7     2    33    1
     8     3     4    1
     9     4     5    2
    10     4     6    1
    11     6    28    1
    12     6     7    1
    13     6    10    1
    14     7     8    1
    15     7    34    1
    16     7    35    1
    17     8     9    1
    18     9    36    1
    19     9    37    1
    20     9    38    1
    21    10    11    1
    22    10    39    1
    23    10    40    1
    24    11    12    1
    25    11    41    1
    26    11    42    1
    27    12    13   am
    28    12    27    1
    29    13    14    2
    30    13    15   am
    31    15    16    1
    32    15    43    1
    33    16    17    1
    34    16    18    1
    35    16    19    1
    36    18    44    1
    37    18    45    1
    38    18    46    1
    39    19    25   ar
    40    19    20   ar
    41    20    21   ar
    42    20    47    1
    43    21    22   ar
    44    21    48    1
    45    22    23   ar
    46    22    49    1
    47    23    24    1
    48    23    25   ar
    49    25    26    1
    50    27    28    1
    51    27    50    1
    52    27    51    1
    53    28    52    1
    54    28    53    1
@<TRIPOS>SUBSTRUCTURE
     1 ZINC000474368324        1 TEMP              0 ****  ****    0 ROOT


##########                                Name:    ZINC001386869844
##########                DOCK_Rotatable_Bonds:                   9
##########                         Heavy_Atoms:                  25
##########                    Molecular_Weight:             345.485
##########                DOCK_Rotatable_Bonds:                   9
##########                       Formal_Charge:          -0.0300003
##########                     HBond_Acceptors:                   5
##########                        HBond_Donors:                   2
##########                         Heavy_Atoms:                  25
##########                          Grid_Score:          -33.434326
##########                     Grid_vdw_energy:          -32.502197
##########                      Grid_es_energy:           -0.932128
##########           Internal_energy_repulsive:           30.994799

@<TRIPOS>MOLECULE
ZINC001386869844
 56 58 1 0 0
SMALL
USER_CHARGES


@<TRIPOS>ATOM
      1 C1        -14.0465   -4.5054   57.5125 C.3     1  ZINC001386869844    0.0600
      2 N2        -13.3355   -4.4530   56.2327 N.am    1  ZINC001386869844   -0.6200
      3 C3        -13.9498   -5.0200   55.0297 C.3     1  ZINC001386869844    0.1100
      4 C4        -15.0289   -4.0677   54.5107 C.3     1  ZINC001386869844    0.1000
      5 N5        -14.5838   -3.4649   53.2519 N.am    1  ZINC001386869844   -0.7300
      6 C6        -14.2255   -2.1661   53.2162 C.2     1  ZINC001386869844    0.5200
      7 O7        -14.2764   -1.4951   54.2251 O.2     1  ZINC001386869844   -0.5300
      8 C8        -13.7676   -1.5461   51.9212 C.3     1  ZINC001386869844   -0.1300
      9 C9        -14.9629   -0.9075   51.2110 C.3     1  ZINC001386869844   -0.0100
     10 C10       -16.0151   -1.9792   50.9194 C.3     1  ZINC001386869844   -0.1500
     11 C11       -15.5706    0.1735   52.1071 C.3     1  ZINC001386869844   -0.1600
     12 C12       -14.4980   -0.2780   49.8962 C.3     1  ZINC001386869844   -0.1500
     13 C13       -15.2655   -0.6484   48.6254 C.3     1  ZINC001386869844   -0.1900
     14 C14       -13.8575   -1.2019   48.8583 C.3     1  ZINC001386869844   -0.1800
     15 C15       -12.1162   -3.8831   56.1620 C.2     1  ZINC001386869844    0.5900
     16 O16       -11.5255   -3.8397   55.0990 O.2     1  ZINC001386869844   -0.5200
     17 C17       -11.5012   -3.3153   57.3666 C.2     1  ZINC001386869844   -0.0600
     18 C18       -10.7657   -4.0054   58.3093 C.2     1  ZINC001386869844   -0.0900
     19 C19       -10.3765   -3.0826   59.2767 C.2     1  ZINC001386869844   -0.1700
     20 C20       -10.8694   -1.8665   58.9208 C.2     1  ZINC001386869844    0.0500
     21 C21       -10.6610   -0.6059   59.7259 C.3     1  ZINC001386869844   -0.0600
     22 C22       -10.2058   -1.0014   61.1356 C.3     1  ZINC001386869844   -0.1100
     23 C23        -9.0399   -1.9891   61.0385 C.3     1  ZINC001386869844   -0.1200
     24 C24        -9.5536   -3.3360   60.5152 C.3     1  ZINC001386869844   -0.0500
     25 N25       -11.5475   -1.9953   57.7592 N.pl3   1  ZINC001386869844   -0.5400
     26 H26       -13.7035   -5.3681   58.0836 H       1  ZINC001386869844    0.0600
     27 H27       -13.8476   -3.5939   58.0762 H       1  ZINC001386869844    0.0800
     28 H28       -15.1175   -4.5932   57.3298 H       1  ZINC001386869844    0.0900
     29 H29       -14.4005   -5.9827   55.2713 H       1  ZINC001386869844    0.1000
     30 H30       -13.1875   -5.1580   54.2629 H       1  ZINC001386869844    0.0900
     31 H31       -15.2055   -3.2832   55.2466 H       1  ZINC001386869844    0.0700
     32 H32       -15.9521   -4.6220   54.3418 H       1  ZINC001386869844    0.0700
     33 H33       -14.5471   -4.0005   52.4439 H       1  ZINC001386869844    0.4000
     34 H34       -13.0181   -0.7825   52.1289 H       1  ZINC001386869844    0.0900
     35 H35       -13.3346   -2.3161   51.2827 H       1  ZINC001386869844    0.0900
     36 H36       -16.3462   -2.4277   51.8560 H       1  ZINC001386869844    0.0800
     37 H37       -16.8666   -1.5242   50.4133 H       1  ZINC001386869844    0.0500
     38 H38       -15.5821   -2.7494   50.2809 H       1  ZINC001386869844    0.0500
     39 H39       -14.8211    0.9370   52.3148 H       1  ZINC001386869844    0.0500
     40 H40       -16.4222    0.6285   51.6010 H       1  ZINC001386869844    0.0500
     41 H41       -15.9018   -0.2749   53.0437 H       1  ZINC001386869844    0.0800
     42 H42       -14.1112    0.7381   49.9723 H       1  ZINC001386869844    0.1000
     43 H43       -16.1015   -1.3405   48.7261 H       1  ZINC001386869844    0.1000
     44 H44       -15.3832    0.1241   47.8654 H       1  ZINC001386869844    0.0900
     45 H45       -13.0494   -0.7933   48.2514 H       1  ZINC001386869844    0.0900
     46 H46       -13.7672   -2.2580   49.1122 H       1  ZINC001386869844    0.0900
     47 H47       -10.5363   -5.0608   58.2988 H       1  ZINC001386869844    0.1500
     48 H48        -9.8961    0.0097   59.2525 H       1  ZINC001386869844    0.0800
     49 H49       -11.5963   -0.0492   59.7850 H       1  ZINC001386869844    0.0800
     50 H50        -9.8838   -0.1116   61.6763 H       1  ZINC001386869844    0.0700
     51 H51       -11.0346   -1.4691   61.6670 H       1  ZINC001386869844    0.0700
     52 H52        -8.2872   -1.5967   60.3547 H       1  ZINC001386869844    0.0600
     53 H53        -8.5977   -2.1274   62.0251 H       1  ZINC001386869844    0.0700
     54 H54       -10.1718   -3.8135   61.2753 H       1  ZINC001386869844    0.0700
     55 H55        -8.7095   -3.9805   60.2696 H       1  ZINC001386869844    0.0700
     56 H56       -11.9942   -1.2784   57.2823 H       1  ZINC001386869844    0.4200
@<TRIPOS>BOND
     1     1     2    1
     2     1    26    1
     3     1    27    1
     4     1    28    1
     5     2     3    1
     6     2    15   am
     7     3     4    1
     8     3    29    1
     9     3    30    1
    10     4     5    1
    11     4    31    1
    12     4    32    1
    13     5     6   am
    14     5    33    1
    15     6     7    2
    16     6     8    1
    17     8     9    1
    18     8    34    1
    19     8    35    1
    20     9    10    1
    21     9    11    1
    22     9    12    1
    23    10    36    1
    24    10    37    1
    25    10    38    1
    26    11    39    1
    27    11    40    1
    28    11    41    1
    29    12    14    1
    30    12    13    1
    31    12    42    1
    32    13    14    1
    33    13    43    1
    34    13    44    1
    35    14    45    1
    36    14    46    1
    37    15    16    2
    38    15    17    1
    39    17    25    1
    40    17    18    2
    41    18    19    1
    42    18    47    1
    43    19    24    1
    44    19    20    2
    45    20    21    1
    46    20    25    1
    47    21    22    1
    48    21    48    1
    49    21    49    1
    50    22    23    1
    51    22    50    1
    52    22    51    1
    53    23    24    1
    54    23    52    1
    55    23    53    1
    56    24    54    1
    57    24    55    1
    58    25    56    1
@<TRIPOS>SUBSTRUCTURE
     1 ZINC001386869844        1 TEMP              0 ****  ****    0 ROOT


##########                                Name:    ZINC000001174632
##########                DOCK_Rotatable_Bonds:                   6
##########                         Heavy_Atoms:                  29
##########                    Molecular_Weight:             385.419
##########                DOCK_Rotatable_Bonds:                   6
##########                       Formal_Charge:           0.0400005
##########                     HBond_Acceptors:                   5
##########                        HBond_Donors:                   1
##########                         Heavy_Atoms:                  29
##########                          Grid_Score:          -33.430756
##########                     Grid_vdw_energy:          -31.883160
##########                      Grid_es_energy:           -1.547596
##########           Internal_energy_repulsive:           17.586941

@<TRIPOS>MOLECULE
ZINC000001174632
 48 51 1 0 0
SMALL
USER_CHARGES


@<TRIPOS>ATOM
      1 C1         -9.9863   -3.6921   59.7364 C.3     1  ZINC000001174632    0.0400
      2 O2         -9.5667   -2.8705   58.6152 O.3     1  ZINC000001174632   -0.3500
      3 C3         -9.4524   -1.5460   58.8362 C.2     1  ZINC000001174632    0.5200
      4 O4         -8.8970   -0.8394   58.0184 O.2     1  ZINC000001174632   -0.5200
      5 C5        -10.0008   -0.9548   60.0696 C.ar    1  ZINC000001174632   -0.2000
      6 C6         -9.2684   -1.0027   61.2581 C.ar    1  ZINC000001174632   -0.0200
      7 C7         -9.7869   -0.4474   62.4081 C.ar    1  ZINC000001174632   -0.1800
      8 C8        -11.0325    0.1593   62.3930 C.ar    1  ZINC000001174632   -0.0300
      9 C9        -11.7690    0.2147   61.2270 C.ar    1  ZINC000001174632   -0.1900
     10 C10       -11.2609   -0.3342   60.0562 C.ar    1  ZINC000001174632    0.2600
     11 N11       -11.9997   -0.2796   58.8816 N.pl3   1  ZINC000001174632   -0.6500
     12 C12       -12.6886   -1.3849   58.4529 C.2     1  ZINC000001174632    0.2300
     13 C13       -13.7434   -1.9787   59.1190 C.2     1  ZINC000001174632   -0.1800
     14 C14       -14.3162   -1.5312   60.4079 C.ar    1  ZINC000001174632   -0.0600
     15 C15       -14.0605   -2.2522   61.5753 C.ar    1  ZINC000001174632   -0.0600
     16 C16       -14.5963   -1.8318   62.7745 C.ar    1  ZINC000001174632   -0.1500
     17 C17       -15.3894   -0.6935   62.8215 C.ar    1  ZINC000001174632    0.1400
     18 O18       -15.9157   -0.2824   64.0057 O.3     1  ZINC000001174632   -0.3200
     19 C19       -15.6943   -1.1223   65.1404 C.3     1  ZINC000001174632    0.0300
     20 C20       -15.6461    0.0265   61.6627 C.ar    1  ZINC000001174632   -0.2100
     21 C21       -15.1090   -0.3837   60.4605 C.ar    1  ZINC000001174632   -0.0500
     22 C22       -14.1991   -3.1296   58.3290 C.2     1  ZINC000001174632    0.4500
     23 O23       -15.1090   -3.8848   58.6102 O.2     1  ZINC000001174632   -0.4100
     24 C24       -13.3354   -3.1956   57.1180 C.ar    1  ZINC000001174632   -0.1600
     25 C25       -13.3003   -4.0555   56.0364 C.ar    1  ZINC000001174632   -0.0500
     26 C26       -12.3578   -3.8663   55.0305 C.ar    1  ZINC000001174632   -0.1100
     27 C27       -11.4588   -2.8248   55.1089 C.ar    1  ZINC000001174632   -0.0900
     28 C28       -11.4849   -1.9540   56.1919 C.ar    1  ZINC000001174632   -0.0800
     29 C29       -12.4238   -2.1282   57.1980 C.ar    1  ZINC000001174632   -0.0600
     30 H30       -10.9688   -3.3663   60.0780 H       1  ZINC000001174632    0.0700
     31 H31       -10.0379   -4.7349   59.4235 H       1  ZINC000001174632    0.1100
     32 H32        -9.2673   -3.5919   60.5495 H       1  ZINC000001174632    0.0700
     33 H33        -8.2972   -1.4747   61.2760 H       1  ZINC000001174632    0.1400
     34 H34        -9.2193   -0.4858   63.3262 H       1  ZINC000001174632    0.1300
     35 H35       -11.4298    0.5915   63.2995 H       1  ZINC000001174632    0.1300
     36 H36       -12.7394    0.6887   61.2237 H       1  ZINC000001174632    0.1300
     37 H37       -12.0285    0.5406   58.3644 H       1  ZINC000001174632    0.4300
     38 H38       -13.4441   -3.1383   61.5394 H       1  ZINC000001174632    0.1300
     39 H39       -14.3989   -2.3891   63.6782 H       1  ZINC000001174632    0.1300
     40 H40       -16.1252   -2.1059   64.9540 H       1  ZINC000001174632    0.0600
     41 H41       -14.6229   -1.2222   65.3149 H       1  ZINC000001174632    0.0600
     42 H42       -16.1656   -0.6794   66.0178 H       1  ZINC000001174632    0.1000
     43 H43       -16.2639    0.9114   61.7034 H       1  ZINC000001174632    0.1300
     44 H44       -15.3089    0.1771   59.5595 H       1  ZINC000001174632    0.1300
     45 H45       -14.0030   -4.8731   55.9723 H       1  ZINC000001174632    0.1400
     46 H46       -12.3303   -4.5382   54.1853 H       1  ZINC000001174632    0.1400
     47 H47       -10.7296   -2.6847   54.3247 H       1  ZINC000001174632    0.1400
     48 H48       -10.7778   -1.1396   56.2477 H       1  ZINC000001174632    0.1300
@<TRIPOS>BOND
     1     1     2    1
     2     1    30    1
     3     1    31    1
     4     1    32    1
     5     2     3    1
     6     3     4    2
     7     3     5    1
     8     5    10   ar
     9     5     6   ar
    10     6     7   ar
    11     6    33    1
    12     7     8   ar
    13     7    34    1
    14     8     9   ar
    15     8    35    1
    16     9    10   ar
    17     9    36    1
    18    10    11    1
    19    11    12    1
    20    11    37    1
    21    12    29    1
    22    12    13    2
    23    13    14    1
    24    13    22    1
    25    14    21   ar
    26    14    15   ar
    27    15    16   ar
    28    15    38    1
    29    16    17   ar
    30    16    39    1
    31    17    18    1
    32    17    20   ar
    33    18    19    1
    34    19    40    1
    35    19    41    1
    36    19    42    1
    37    20    21   ar
    38    20    43    1
    39    21    44    1
    40    22    23    2
    41    22    24    1
    42    24    29   ar
    43    24    25   ar
    44    25    26   ar
    45    25    45    1
    46    26    27   ar
    47    26    46    1
    48    27    28   ar
    49    27    47    1
    50    28    29   ar
    51    28    48    1
@<TRIPOS>SUBSTRUCTURE
     1 ZINC000001174632        1 TEMP              0 ****  ****    0 ROOT


##########                                Name:    ZINC001291841503
##########                DOCK_Rotatable_Bonds:                   7
##########                         Heavy_Atoms:                  28
##########                    Molecular_Weight:             397.544
##########                DOCK_Rotatable_Bonds:                   7
##########                       Formal_Charge:         -0.00999964
##########                     HBond_Acceptors:                   7
##########                        HBond_Donors:                   0
##########                         Heavy_Atoms:                  28
##########                          Grid_Score:          -33.389046
##########                     Grid_vdw_energy:          -32.701134
##########                      Grid_es_energy:           -0.687910
##########           Internal_energy_repulsive:           12.952957

@<TRIPOS>MOLECULE
ZINC001291841503
 55 58 1 0 0
SMALL
USER_CHARGES


@<TRIPOS>ATOM
      1 C1         -9.9305   -2.8617   60.1569 C.3     1  ZINC001291841503   -0.1500
      2 C2        -10.2721   -3.3587   58.7507 C.3     1  ZINC001291841503   -0.1100
      3 C3        -11.2281   -2.3710   58.0789 C.3     1  ZINC001291841503    0.0500
      4 H4        -10.9334   -1.3520   58.3301 H       1  ZINC001291841503    0.0900
      5 C5        -11.1726   -2.5558   56.5843 C.2     1  ZINC001291841503    0.2000
      6 N6        -10.7981   -3.6322   55.9527 N.2     1  ZINC001291841503   -0.2700
      7 N7        -10.8716   -3.4463   54.6831 N.2     1  ZINC001291841503   -0.3100
      8 C8        -11.3006   -2.2314   54.4345 C.2     1  ZINC001291841503    0.3600
      9 N9        -11.5062   -1.6700   53.1842 N.3     1  ZINC001291841503   -0.4500
     10 C10       -10.2523   -1.6108   52.4211 C.3     1  ZINC001291841503    0.0200
     11 C11       -12.5403   -2.4028   52.4417 C.3     1  ZINC001291841503    0.0700
     12 H12       -12.1650   -3.3712   52.1106 H       1  ZINC001291841503    0.0800
     13 C13       -13.8229   -2.5716   53.3011 C.3     1  ZINC001291841503   -0.1400
     14 C14       -14.9073   -2.6567   52.1976 C.3     1  ZINC001291841503    0.0500
     15 O15       -14.4729   -1.7475   51.1739 O.3     1  ZINC001291841503   -0.3800
     16 C16       -13.0495   -1.5722   51.2441 C.3     1  ZINC001291841503    0.0600
     17 N17       -11.5117   -1.6272   55.6396 N.pl3   1  ZINC001291841503   -0.4700
     18 C18       -11.9926   -0.2632   55.8730 C.3     1  ZINC001291841503    0.1900
     19 C19       -10.8155    0.6671   56.0150 C.2     1  ZINC001291841503   -0.2700
     20 C20       -10.8382    1.9938   55.8553 C.2     1  ZINC001291841503    0.0800
     21 N21        -9.6744    2.5856   56.0338 N.2     1  ZINC001291841503   -0.4800
     22 C22        -8.6713    1.8321   56.3352 C.2     1  ZINC001291841503    0.0500
     23 C23        -7.2667    2.3217   56.5769 C.3     1  ZINC001291841503   -0.0800
     24 S24        -9.1679    0.1988   56.4281 S.3     1  ZINC001291841503    0.1800
     25 C25       -12.6324   -2.6219   58.5643 C.ar    1  ZINC001291841503   -0.0900
     26 C26       -13.3146   -3.7515   58.1526 C.ar    1  ZINC001291841503   -0.0900
     27 C27       -14.6028   -3.9817   58.5979 C.ar    1  ZINC001291841503   -0.1200
     28 C28       -15.2087   -3.0826   59.4554 C.ar    1  ZINC001291841503   -0.1200
     29 C29       -14.5263   -1.9534   59.8679 C.ar    1  ZINC001291841503   -0.1200
     30 C30       -13.2364   -1.7254   59.4259 C.ar    1  ZINC001291841503   -0.1100
     31 H31        -9.4547   -1.8833   60.0908 H       1  ZINC001291841503    0.0500
     32 H32       -10.8441   -2.7824   60.7461 H       1  ZINC001291841503    0.0500
     33 H33        -9.2495   -3.5654   60.6356 H       1  ZINC001291841503    0.0600
     34 H34        -9.3585   -3.4380   58.1615 H       1  ZINC001291841503    0.0800
     35 H35       -10.7479   -4.3371   58.8168 H       1  ZINC001291841503    0.0800
     36 H36        -9.9070   -2.6231   52.2105 H       1  ZINC001291841503    0.0500
     37 H37       -10.4225   -1.0825   51.4831 H       1  ZINC001291841503    0.0900
     38 H38        -9.4970   -1.0832   53.0035 H       1  ZINC001291841503    0.0700
     39 H39       -13.7854   -3.4901   53.8867 H       1  ZINC001291841503    0.0900
     40 H40       -13.9826   -1.7051   53.9428 H       1  ZINC001291841503    0.0800
     41 H41       -14.9662   -3.6710   51.8026 H       1  ZINC001291841503    0.0700
     42 H42       -15.8747   -2.3471   52.5930 H       1  ZINC001291841503    0.0900
     43 H43       -12.8137   -0.5196   51.4007 H       1  ZINC001291841503    0.0800
     44 H44       -12.5877   -1.9224   50.3209 H       1  ZINC001291841503    0.0700
     45 H45       -12.6072    0.0545   55.0307 H       1  ZINC001291841503    0.1100
     46 H46       -12.5871   -0.2388   56.7862 H       1  ZINC001291841503    0.1100
     47 H47       -11.7367    2.5363   55.6008 H       1  ZINC001291841503    0.1700
     48 H48        -7.1406    2.5567   57.6339 H       1  ZINC001291841503    0.0900
     49 H49        -6.5570    1.5457   56.2902 H       1  ZINC001291841503    0.0800
     50 H50        -7.0863    3.2169   55.9817 H       1  ZINC001291841503    0.0900
     51 H51       -12.8412   -4.4540   57.4827 H       1  ZINC001291841503    0.1300
     52 H52       -15.1360   -4.8639   58.2757 H       1  ZINC001291841503    0.1200
     53 H53       -16.2155   -3.2620   59.8028 H       1  ZINC001291841503    0.1200
     54 H54       -14.9998   -1.2507   60.5375 H       1  ZINC001291841503    0.1200
     55 H55       -12.7032   -0.8432   59.7482 H       1  ZINC001291841503    0.1200
@<TRIPOS>BOND
     1     1     2    1
     2     1    31    1
     3     1    32    1
     4     1    33    1
     5     2     3    1
     6     2    34    1
     7     2    35    1
     8     3     4    1
     9     3     5    1
    10     3    25    1
    11     5    17    1
    12     5     6    2
    13     6     7    1
    14     7     8    2
    15     8     9    1
    16     8    17    1
    17     9    10    1
    18     9    11    1
    19    10    36    1
    20    10    37    1
    21    10    38    1
    22    11    12    1
    23    11    16    1
    24    11    13    1
    25    13    14    1
    26    13    39    1
    27    13    40    1
    28    14    15    1
    29    14    41    1
    30    14    42    1
    31    15    16    1
    32    16    43    1
    33    16    44    1
    34    17    18    1
    35    18    19    1
    36    18    45    1
    37    18    46    1
    38    19    24    1
    39    19    20    2
    40    20    21    1
    41    20    47    1
    42    21    22    2
    43    22    23    1
    44    22    24    1
    45    23    48    1
    46    23    49    1
    47    23    50    1
    48    25    30   ar
    49    25    26   ar
    50    26    27   ar
    51    26    51    1
    52    27    28   ar
    53    27    52    1
    54    28    29   ar
    55    28    53    1
    56    29    30   ar
    57    29    54    1
    58    30    55    1
@<TRIPOS>SUBSTRUCTURE
     1 ZINC001291841503        1 TEMP              0 ****  ****    0 ROOT


##########                                Name:    ZINC000655235556
##########                DOCK_Rotatable_Bonds:                   6
##########                         Heavy_Atoms:                  23
##########                    Molecular_Weight:             336.778
##########                DOCK_Rotatable_Bonds:                   6
##########                       Formal_Charge:         -0.00999996
##########                     HBond_Acceptors:                   8
##########                        HBond_Donors:                   2
##########                         Heavy_Atoms:                  23
##########                          Grid_Score:          -33.383911
##########                     Grid_vdw_energy:          -32.426815
##########                      Grid_es_energy:           -0.957097
##########           Internal_energy_repulsive:           10.049899

@<TRIPOS>MOLECULE
ZINC000655235556
 40 42 1 0 0
SMALL
USER_CHARGES


@<TRIPOS>ATOM
      1 C1         -1.3050    4.2884   44.9540 C.3     1  ZINC000655235556    0.0200
      2 O2         -1.7173    3.4971   46.0702 O.3     1  ZINC000655235556   -0.2700
      3 C3         -1.7413    2.1520   45.8962 C.ar    1  ZINC000655235556    0.2000
      4 C4         -1.4552    1.6055   44.6549 C.ar    1  ZINC000655235556   -0.2100
      5 C5         -1.4796    0.2344   44.4794 C.ar    1  ZINC000655235556    0.0300
      6 Cl6        -1.1201   -0.4430   42.9220 Cl      1  ZINC000655235556   -0.0500
      7 C7         -1.7891   -0.6027   45.5406 C.ar    1  ZINC000655235556   -0.1600
      8 C8         -2.0759   -0.0754   46.7807 C.ar    1  ZINC000655235556   -0.0300
      9 C9         -2.0499    1.3082   46.9726 C.ar    1  ZINC000655235556   -0.1700
     10 C10        -2.3556    1.8786   48.2978 C.2     1  ZINC000655235556    0.5700
     11 O11        -1.6861    2.7951   48.7344 O.2     1  ZINC000655235556   -0.5100
     12 N12        -3.3770    1.3842   49.0250 N.am    1  ZINC000655235556   -0.7300
     13 C13        -3.6817    1.9520   50.3407 C.3     1  ZINC000655235556    0.2100
     14 C14        -5.1230    1.6775   50.6847 C.2     1  ZINC000655235556    0.2600
     15 N15        -5.8698    2.3892   51.4894 N.2     1  ZINC000655235556   -0.5100
     16 C16        -7.0897    1.8583   51.5616 C.2     1  ZINC000655235556    0.2200
     17 C17        -8.2311    2.3953   52.3863 C.3     1  ZINC000655235556    0.1700
     18 H18        -8.7706    3.1548   51.8206 H       1  ZINC000655235556    0.1100
     19 C19        -7.6886    3.0051   53.6968 C.3     1  ZINC000655235556   -0.1400
     20 C20        -8.7576    2.5633   54.7331 C.3     1  ZINC000655235556   -0.1500
     21 C21        -9.1598    1.1776   54.1683 C.3     1  ZINC000655235556    0.0500
     22 O22        -9.1199    1.3288   52.7385 O.3     1  ZINC000655235556   -0.3700
     23 N23        -7.1362    0.7966   50.8005 N.2     1  ZINC000655235556   -0.2800
     24 N24        -5.8673    0.6619   50.2139 N.pl3   1  ZINC000655235556   -0.4700
     25 H25        -0.2902    4.0119   44.6677 H       1  ZINC000655235556    0.0600
     26 H26        -1.9794    4.1135   44.1157 H       1  ZINC000655235556    0.0600
     27 H27        -1.3308    5.3433   45.2271 H       1  ZINC000655235556    0.1100
     28 H28        -1.2132    2.2515   43.8240 H       1  ZINC000655235556    0.1500
     29 H29        -1.8058   -1.6725   45.3943 H       1  ZINC000655235556    0.1400
     30 H30        -2.3168   -0.7311   47.6043 H       1  ZINC000655235556    0.1400
     31 H31        -3.9103    0.6524   48.6773 H       1  ZINC000655235556    0.4000
     32 H32        -3.0359    1.4966   51.0914 H       1  ZINC000655235556    0.1000
     33 H33        -3.5118    3.0285   50.3201 H       1  ZINC000655235556    0.1100
     34 H34        -6.7126    2.5876   53.9441 H       1  ZINC000655235556    0.0800
     35 H35        -7.6408    4.0918   53.6282 H       1  ZINC000655235556    0.0900
     36 H36        -8.3245    2.4708   55.7291 H       1  ZINC000655235556    0.0900
     37 H37        -9.6064    3.2470   54.7378 H       1  ZINC000655235556    0.0800
     38 H38        -8.4478    0.4171   54.4890 H       1  ZINC000655235556    0.0600
     39 H39       -10.1668    0.9148   54.4922 H       1  ZINC000655235556    0.0900
     40 H40        -5.5827   -0.0301   49.5967 H       1  ZINC000655235556    0.4400
@<TRIPOS>BOND
     1     1     2    1
     2     1    25    1
     3     1    26    1
     4     1    27    1
     5     2     3    1
     6     3     9   ar
     7     3     4   ar
     8     4     5   ar
     9     4    28    1
    10     5     6    1
    11     5     7   ar
    12     7     8   ar
    13     7    29    1
    14     8     9   ar
    15     8    30    1
    16     9    10    1
    17    10    11    2
    18    10    12   am
    19    12    13    1
    20    12    31    1
    21    13    14    1
    22    13    32    1
    23    13    33    1
    24    14    24    1
    25    14    15    2
    26    15    16    1
    27    16    17    1
    28    16    23    2
    29    17    18    1
    30    17    22    1
    31    17    19    1
    32    19    20    1
    33    19    34    1
    34    19    35    1
    35    20    21    1
    36    20    36    1
    37    20    37    1
    38    21    22    1
    39    21    38    1
    40    21    39    1
    41    23    24    1
    42    24    40    1
@<TRIPOS>SUBSTRUCTURE
     1 ZINC000655235556        1 TEMP              0 ****  ****    0 ROOT


##########                                Name:    ZINC000558052810
##########                DOCK_Rotatable_Bonds:                   9
##########                         Heavy_Atoms:                  30
##########                    Molecular_Weight:             424.524
##########                DOCK_Rotatable_Bonds:                   9
##########                       Formal_Charge:          -0.0200002
##########                     HBond_Acceptors:                   8
##########                        HBond_Donors:                   1
##########                         Heavy_Atoms:                  30
##########                          Grid_Score:          -33.376755
##########                     Grid_vdw_energy:          -33.036701
##########                      Grid_es_energy:           -0.340052
##########           Internal_energy_repulsive:           11.246263

@<TRIPOS>MOLECULE
ZINC000558052810
 54 56 1 0 0
SMALL
USER_CHARGES


@<TRIPOS>ATOM
      1 C1        -10.8474   -1.1441   52.6632 C.3     1  ZINC000558052810   -0.1700
      2 C2        -11.2491   -2.5989   52.4121 C.3     1  ZINC000558052810    0.1100
      3 N3        -12.2099   -3.0234   53.4333 N.am    1  ZINC000558052810   -0.6100
      4 C4        -13.6462   -2.8446   53.2072 C.3     1  ZINC000558052810    0.0700
      5 C5        -11.7723   -3.5785   54.5808 C.2     1  ZINC000558052810    0.5600
      6 O6        -10.5806   -3.7272   54.7684 O.2     1  ZINC000558052810   -0.5300
      7 C7        -12.7420   -4.0070   55.6116 C.ar    1  ZINC000558052810   -0.1100
      8 C8        -13.4265   -5.2151   55.4701 C.ar    1  ZINC000558052810   -0.1100
      9 C9        -14.3312   -5.6128   56.4336 C.ar    1  ZINC000558052810   -0.1000
     10 C10       -14.5633   -4.8180   57.5402 C.ar    1  ZINC000558052810   -0.1300
     11 C11       -13.8872   -3.6128   57.6903 C.ar    1  ZINC000558052810    0.1400
     12 N12       -14.1261   -2.8117   58.8119 N.am    1  ZINC000558052810   -0.6600
     13 C13       -13.1106   -2.4857   59.6358 C.2     1  ZINC000558052810    0.5600
     14 O14       -11.9865   -2.8880   59.4041 O.2     1  ZINC000558052810   -0.4800
     15 C15       -13.3623   -1.6419   60.8173 C.ar    1  ZINC000558052810   -0.1900
     16 C16       -13.8136   -2.2085   62.0148 C.ar    1  ZINC000558052810   -0.0200
     17 C17       -14.0350   -1.3728   63.0952 C.ar    1  ZINC000558052810   -0.1900
     18 C18       -13.8067   -0.0145   62.9647 C.ar    1  ZINC000558052810    0.1500
     19 N19       -13.3818    0.5013   61.8281 N.ar    1  ZINC000558052810   -0.4900
     20 C20       -13.1477   -0.2529   60.7643 C.ar    1  ZINC000558052810    0.1600
     21 S21       -12.5807    0.4902   59.2706 S.3     1  ZINC000558052810    0.0600
     22 C22       -10.8726    0.8673   59.7359 C.3     1  ZINC000558052810   -0.0700
     23 C23       -10.2302    1.7001   58.6567 C.2     1  ZINC000558052810   -0.2000
     24 C24       -10.2614    3.0465   58.5126 C.2     1  ZINC000558052810   -0.0100
     25 C25       -10.9579    4.0344   59.4126 C.3     1  ZINC000558052810   -0.0800
     26 O26        -9.5506    3.3269   57.4112 O.3     1  ZINC000558052810    0.1000
     27 N27        -9.1118    2.3237   56.8981 N.2     1  ZINC000558052810   -0.3600
     28 C28        -9.4499    1.2575   57.5640 C.2     1  ZINC000558052810    0.0300
     29 C29        -9.0893   -0.1672   57.2306 C.3     1  ZINC000558052810   -0.0800
     30 C30       -12.9716   -3.2077   56.7316 C.ar    1  ZINC000558052810   -0.0700
     31 H31       -11.7322   -0.5094   52.6158 H       1  ZINC000558052810    0.0600
     32 H32       -10.3910   -1.0583   53.6493 H       1  ZINC000558052810    0.0600
     33 H33       -10.1325   -0.8283   51.9033 H       1  ZINC000558052810    0.0700
     34 H34       -11.7054   -2.6848   51.4259 H       1  ZINC000558052810    0.0800
     35 H35       -10.3642   -3.2336   52.4594 H       1  ZINC000558052810    0.0800
     36 H36       -14.0339   -3.6937   52.6444 H       1  ZINC000558052810    0.0600
     37 H37       -14.1597   -2.7795   54.1664 H       1  ZINC000558052810    0.0800
     38 H38       -13.8137   -1.9274   52.6425 H       1  ZINC000558052810    0.0700
     39 H39       -13.2484   -5.8387   54.6064 H       1  ZINC000558052810    0.1400
     40 H40       -14.8599   -6.5480   56.3222 H       1  ZINC000558052810    0.1400
     41 H41       -15.2728   -5.1342   58.2906 H       1  ZINC000558052810    0.1300
     42 H42       -15.0227   -2.4909   58.9967 H       1  ZINC000558052810    0.4100
     43 H43       -13.9854   -3.2719   62.0934 H       1  ZINC000558052810    0.1400
     44 H44       -14.3837   -1.7780   64.0336 H       1  ZINC000558052810    0.1500
     45 H45       -13.9803    0.6356   63.8095 H       1  ZINC000558052810    0.1700
     46 H46       -10.8657    1.4210   60.6747 H       1  ZINC000558052810    0.1000
     47 H47       -10.3157   -0.0618   59.8579 H       1  ZINC000558052810    0.1000
     48 H48       -10.2745    4.3534   60.1996 H       1  ZINC000558052810    0.0900
     49 H49       -11.2696    4.9005   58.8290 H       1  ZINC000558052810    0.0900
     50 H50       -11.8332    3.5637   59.8602 H       1  ZINC000558052810    0.0900
     51 H51        -8.1488   -0.4273   57.7165 H       1  ZINC000558052810    0.0800
     52 H52        -9.8768   -0.8333   57.5831 H       1  ZINC000558052810    0.0800
     53 H53        -8.9813   -0.2716   56.1509 H       1  ZINC000558052810    0.0800
     54 H54       -12.4450   -2.2718   56.8464 H       1  ZINC000558052810    0.1500
@<TRIPOS>BOND
     1     1     2    1
     2     1    31    1
     3     1    32    1
     4     1    33    1
     5     2     3    1
     6     2    34    1
     7     2    35    1
     8     3     4    1
     9     3     5   am
    10     4    36    1
    11     4    37    1
    12     4    38    1
    13     5     6    2
    14     5     7    1
    15     7    30   ar
    16     7     8   ar
    17     8     9   ar
    18     8    39    1
    19     9    10   ar
    20     9    40    1
    21    10    11   ar
    22    10    41    1
    23    11    12    1
    24    11    30   ar
    25    12    13   am
    26    12    42    1
    27    13    14    2
    28    13    15    1
    29    15    20   ar
    30    15    16   ar
    31    16    17   ar
    32    16    43    1
    33    17    18   ar
    34    17    44    1
    35    18    19   ar
    36    18    45    1
    37    19    20   ar
    38    20    21    1
    39    21    22    1
    40    22    23    1
    41    22    46    1
    42    22    47    1
    43    23    28    1
    44    23    24    2
    45    24    25    1
    46    24    26    1
    47    25    48    1
    48    25    49    1
    49    25    50    1
    50    26    27    1
    51    27    28    2
    52    28    29    1
    53    29    51    1
    54    29    52    1
    55    29    53    1
    56    30    54    1
@<TRIPOS>SUBSTRUCTURE
     1 ZINC000558052810        1 TEMP              0 ****  ****    0 ROOT


##########                                Name:    ZINC000944933040
##########                DOCK_Rotatable_Bonds:                   4
##########                         Heavy_Atoms:                  26
##########                    Molecular_Weight:             354.449
##########                DOCK_Rotatable_Bonds:                   4
##########                       Formal_Charge:           0.0100002
##########                     HBond_Acceptors:                   5
##########                        HBond_Donors:                   0
##########                         Heavy_Atoms:                  26
##########                          Grid_Score:          -33.368210
##########                     Grid_vdw_energy:          -32.652489
##########                      Grid_es_energy:           -0.715721
##########           Internal_energy_repulsive:            8.580497

@<TRIPOS>MOLECULE
ZINC000944933040
 52 57 1 0 0
SMALL
USER_CHARGES


@<TRIPOS>ATOM
      1 O1        -12.1841    0.6226   63.5565 O.2     1  ZINC000944933040   -0.5200
      2 C2        -11.0934    0.1542   63.2918 C.2     1  ZINC000944933040    0.6400
      3 C3         -9.9654    0.4524   64.1222 C.1     1  ZINC000944933040   -0.2200
      4 C4         -9.0408    0.6970   64.8029 C.1     1  ZINC000944933040   -0.0400
      5 C5         -7.8813    1.0036   65.6565 C.3     1  ZINC000944933040   -0.0700
      6 C6         -8.1563    1.3736   67.1154 C.3     1  ZINC000944933040   -0.1600
      7 C7         -7.5448    0.0135   66.7733 C.3     1  ZINC000944933040   -0.1600
      8 N8        -10.9473   -0.6500   62.2202 N.am    1  ZINC000944933040   -0.6000
      9 C9         -9.6373   -1.2312   61.8981 C.3     1  ZINC000944933040    0.1100
     10 C10        -9.2704   -0.8524   60.4583 C.3     1  ZINC000944933040   -0.1200
     11 C11       -10.4219   -1.2350   59.5317 C.3     1  ZINC000944933040   -0.0900
     12 C12       -10.0804   -1.1066   58.0408 C.3     1  ZINC000944933040    0.1200
     13 N13       -10.7883   -2.3917   57.8744 N.am    1  ZINC000944933040   -0.6400
     14 C14       -11.4138   -2.9986   56.8463 C.2     1  ZINC000944933040    0.5500
     15 O15       -11.9236   -4.0877   57.0044 O.2     1  ZINC000944933040   -0.5300
     16 C16       -11.4797   -2.3241   55.5003 C.3     1  ZINC000944933040   -0.1300
     17 H17       -10.9776   -1.3570   55.5296 H       1  ZINC000944933040    0.1100
     18 C18       -12.9504   -2.1653   55.0371 C.3     1  ZINC000944933040   -0.1300
     19 C19       -12.9918   -3.0064   53.7260 C.3     1  ZINC000944933040    0.0900
     20 H20       -13.9808   -3.3484   53.4212 H       1  ZINC000944933040    0.1300
     21 O21       -12.0217   -4.0611   54.0324 O.3     1  ZINC000944933040   -0.3600
     22 C22       -10.8620   -3.2336   54.3962 C.3     1  ZINC000944933040    0.1200
     23 H23        -9.9606   -3.7798   54.6741 H       1  ZINC000944933040    0.1400
     24 C24       -10.7309   -2.3243   53.1376 C.3     1  ZINC000944933040   -0.2000
     25 H25       -10.0239   -1.4955   53.1724 H       1  ZINC000944933040    0.1200
     26 C26       -11.1487   -2.9244   51.7936 C.3     1  ZINC000944933040   -0.1300
     27 C27       -12.2225   -2.1591   52.6686 C.3     1  ZINC000944933040   -0.2000
     28 H28       -12.6444   -1.2167   52.3190 H       1  ZINC000944933040    0.1300
     29 C29       -10.5355   -2.7460   59.2854 C.3     1  ZINC000944933040    0.1100
     30 C30       -11.7456   -0.5777   59.9147 C.3     1  ZINC000944933040   -0.1100
     31 C31       -12.0972   -0.9628   61.3615 C.3     1  ZINC000944933040    0.1100
     32 H32        -7.0499    1.5023   65.1586 H       1  ZINC000944933040    0.1400
     33 H33        -7.5057    2.1161   67.5775 H       1  ZINC000944933040    0.1100
     34 H34        -9.1957    1.3900   67.4431 H       1  ZINC000944933040    0.1000
     35 H35        -8.1819   -0.8650   66.8760 H       1  ZINC000944933040    0.1000
     36 H36        -6.4919   -0.1389   67.0104 H       1  ZINC000944933040    0.1100
     37 H37        -8.8852   -0.8385   62.5823 H       1  ZINC000944933040    0.0900
     38 H38        -9.6865   -2.3162   61.9893 H       1  ZINC000944933040    0.0800
     39 H39        -9.0952    0.2217   60.3974 H       1  ZINC000944933040    0.0800
     40 H40        -8.3690   -1.3872   60.1593 H       1  ZINC000944933040    0.0900
     41 H41       -10.5711   -0.2673   57.5482 H       1  ZINC000944933040    0.0800
     42 H42        -9.0128   -1.1619   57.8281 H       1  ZINC000944933040    0.0900
     43 H43       -13.6355   -2.5741   55.7798 H       1  ZINC000944933040    0.0800
     44 H44       -13.1800   -1.1197   54.8325 H       1  ZINC000944933040    0.0900
     45 H45       -10.8047   -2.4203   50.8904 H       1  ZINC000944933040    0.1000
     46 H46       -11.2148   -4.0104   51.7277 H       1  ZINC000944933040    0.1000
     47 H47        -9.6032   -3.2884   59.4424 H       1  ZINC000944933040    0.0900
     48 H48       -11.3879   -3.2095   59.7819 H       1  ZINC000944933040    0.0800
     49 H49       -11.6508    0.5053   59.8363 H       1  ZINC000944933040    0.0800
     50 H50       -12.5322   -0.9252   59.2451 H       1  ZINC000944933040    0.0800
     51 H51       -12.3188   -2.0288   61.4123 H       1  ZINC000944933040    0.0700
     52 H52       -12.9646   -0.3909   61.6913 H       1  ZINC000944933040    0.1000
@<TRIPOS>BOND
     1     1     2    2
     2     2     3    1
     3     2     8   am
     4     3     4    3
     5     4     5    1
     6     5     7    1
     7     5     6    1
     8     5    32    1
     9     6     7    1
    10     6    33    1
    11     6    34    1
    12     7    35    1
    13     7    36    1
    14     8    31    1
    15     8     9    1
    16     9    10    1
    17     9    37    1
    18     9    38    1
    19    10    11    1
    20    10    39    1
    21    10    40    1
    22    11    29    1
    23    11    12    1
    24    11    30    1
    25    12    13    1
    26    12    41    1
    27    12    42    1
    28    13    14   am
    29    13    29    1
    30    14    15    2
    31    14    16    1
    32    16    17    1
    33    16    22    1
    34    16    18    1
    35    18    19    1
    36    18    43    1
    37    18    44    1
    38    19    20    1
    39    19    27    1
    40    19    21    1
    41    21    22    1
    42    22    23    1
    43    22    24    1
    44    24    25    1
    45    24    27    1
    46    24    26    1
    47    26    27    1
    48    26    45    1
    49    26    46    1
    50    27    28    1
    51    29    47    1
    52    29    48    1
    53    30    31    1
    54    30    49    1
    55    30    50    1
    56    31    51    1
    57    31    52    1
@<TRIPOS>SUBSTRUCTURE
     1 ZINC000944933040        1 TEMP              0 ****  ****    0 ROOT


##########                                Name:    ZINC000505965769
##########                DOCK_Rotatable_Bonds:                   9
##########                         Heavy_Atoms:                  29
##########                    Molecular_Weight:              419.88
##########                DOCK_Rotatable_Bonds:                   9
##########                       Formal_Charge:               -0.02
##########                     HBond_Acceptors:                   7
##########                        HBond_Donors:                   1
##########                         Heavy_Atoms:                  29
##########                          Grid_Score:          -33.363750
##########                     Grid_vdw_energy:          -32.654617
##########                      Grid_es_energy:           -0.709132
##########           Internal_energy_repulsive:            9.466647

@<TRIPOS>MOLECULE
ZINC000505965769
 52 54 1 0 0
SMALL
USER_CHARGES


@<TRIPOS>ATOM
      1 C1         -9.0196   -1.6571   60.5163 C.3     1  ZINC000505965769    0.0200
      2 O2         -9.9548   -2.7139   60.7417 O.3     1  ZINC000505965769   -0.3100
      3 C3        -10.7760   -3.0396   59.7122 C.ar    1  ZINC000505965769    0.1800
      4 C4        -10.3082   -3.8491   58.6823 C.ar    1  ZINC000505965769   -0.2200
      5 C5        -11.1278   -4.1825   57.6420 C.ar    1  ZINC000505965769   -0.0200
      6 C6        -12.4454   -3.7092   57.6085 C.ar    1  ZINC000505965769   -0.2100
      7 C7        -13.3283   -4.0666   56.4919 C.2     1  ZINC000505965769    0.3900
      8 O8        -14.0466   -5.0407   56.5744 O.2     1  ZINC000505965769   -0.4400
      9 C9        -13.3428   -3.2233   55.2431 C.3     1  ZINC000505965769   -0.1500
     10 C10       -11.9665   -3.2751   54.5768 C.3     1  ZINC000505965769   -0.1300
     11 C11       -12.0462   -2.6461   53.2096 C.2     1  ZINC000505965769    0.5200
     12 O12       -11.4167   -3.1188   52.2871 O.2     1  ZINC000505965769   -0.5300
     13 N13       -12.8174   -1.5585   53.0122 N.am    1  ZINC000505965769   -0.7200
     14 C14       -12.8935   -0.9461   51.6835 C.3     1  ZINC000505965769    0.1900
     15 H15       -11.9450   -1.0846   51.1646 H       1  ZINC000505965769    0.1100
     16 C16       -13.9985   -1.5977   50.8927 C.ar    1  ZINC000505965769   -0.1000
     17 C17       -15.1179   -2.0844   51.5417 C.ar    1  ZINC000505965769   -0.0900
     18 C18       -16.1319   -2.6821   50.8175 C.ar    1  ZINC000505965769   -0.1500
     19 C19       -16.0266   -2.7930   49.4414 C.ar    1  ZINC000505965769    0.1000
     20 F20       -17.0174   -3.3768   48.7324 F       1  ZINC000505965769   -0.1400
     21 C21       -14.9051   -2.3048   48.7924 C.ar    1  ZINC000505965769   -0.1500
     22 C22       -13.8946   -1.7031   49.5182 C.ar    1  ZINC000505965769   -0.0600
     23 C23       -13.1826    0.5494   51.8271 C.3     1  ZINC000505965769    0.0800
     24 H24       -14.1114    0.7036   52.3764 H       1  ZINC000505965769    0.0700
     25 C25       -12.0078    1.2576   52.5476 C.3     1  ZINC000505965769   -0.1500
     26 C26       -12.1734    2.7104   52.0239 C.3     1  ZINC000505965769   -0.1600
     27 C27       -12.6906    2.4836   50.5870 C.3     1  ZINC000505965769    0.0500
     28 O28       -13.2598    1.1688   50.5332 O.3     1  ZINC000505965769   -0.3700
     29 C29       -12.9181   -2.8931   58.6462 C.ar    1  ZINC000505965769    0.0500
     30 Cl30      -14.5495   -2.3007   58.6151 Cl      1  ZINC000505965769   -0.0200
     31 C31       -12.0836   -2.5675   59.6934 C.ar    1  ZINC000505965769   -0.1600
     32 H32        -9.5580   -0.7418   60.2703 H       1  ZINC000505965769    0.0600
     33 H33        -8.4263   -1.4987   61.4169 H       1  ZINC000505965769    0.1100
     34 H34        -8.3612   -1.9247   59.6898 H       1  ZINC000505965769    0.0600
     35 H35        -9.2925   -4.2153   58.7053 H       1  ZINC000505965769    0.1400
     36 H36       -10.7596   -4.8111   56.8447 H       1  ZINC000505965769    0.1500
     37 H37       -14.0947   -3.6076   54.5539 H       1  ZINC000505965769    0.1100
     38 H38       -13.5818   -2.1922   55.5036 H       1  ZINC000505965769    0.1100
     39 H39       -11.2468   -2.7289   55.1866 H       1  ZINC000505965769    0.1000
     40 H40       -11.6478   -4.3131   54.4812 H       1  ZINC000505965769    0.1000
     41 H41       -13.3218   -1.1813   53.7498 H       1  ZINC000505965769    0.4000
     42 H42       -15.1999   -1.9978   52.6151 H       1  ZINC000505965769    0.1300
     43 H43       -17.0060   -3.0628   51.3247 H       1  ZINC000505965769    0.1400
     44 H44       -14.8217   -2.3911   47.7191 H       1  ZINC000505965769    0.1400
     45 H45       -13.0199   -1.3219   49.0121 H       1  ZINC000505965769    0.1400
     46 H46       -12.1275    1.2143   53.6301 H       1  ZINC000505965769    0.0700
     47 H47       -11.0494    0.8371   52.2430 H       1  ZINC000505965769    0.1000
     48 H48       -12.9063    3.2558   52.6184 H       1  ZINC000505965769    0.0700
     49 H49       -11.2157    3.2306   52.0139 H       1  ZINC000505965769    0.0800
     50 H50       -13.4526    3.2251   50.3470 H       1  ZINC000505965769    0.0700
     51 H51       -11.8641    2.5590   49.8804 H       1  ZINC000505965769    0.0700
     52 H52       -12.4428   -1.9395   60.4952 H       1  ZINC000505965769    0.1500
@<TRIPOS>BOND
     1     1     2    1
     2     1    32    1
     3     1    33    1
     4     1    34    1
     5     2     3    1
     6     3    31   ar
     7     3     4   ar
     8     4     5   ar
     9     4    35    1
    10     5     6   ar
    11     5    36    1
    12     6     7    1
    13     6    29   ar
    14     7     8    2
    15     7     9    1
    16     9    10    1
    17     9    37    1
    18     9    38    1
    19    10    11    1
    20    10    39    1
    21    10    40    1
    22    11    12    2
    23    11    13   am
    24    13    14    1
    25    13    41    1
    26    14    15    1
    27    14    16    1
    28    14    23    1
    29    16    22   ar
    30    16    17   ar
    31    17    18   ar
    32    17    42    1
    33    18    19   ar
    34    18    43    1
    35    19    20    1
    36    19    21   ar
    37    21    22   ar
    38    21    44    1
    39    22    45    1
    40    23    24    1
    41    23    28    1
    42    23    25    1
    43    25    26    1
    44    25    46    1
    45    25    47    1
    46    26    27    1
    47    26    48    1
    48    26    49    1
    49    27    28    1
    50    27    50    1
    51    27    51    1
    52    29    30    1
    53    29    31   ar
    54    31    52    1
@<TRIPOS>SUBSTRUCTURE
     1 ZINC000505965769        1 TEMP              0 ****  ****    0 ROOT


##########                                Name:    ZINC000420486261
##########                DOCK_Rotatable_Bonds:                   7
##########                         Heavy_Atoms:                  26
##########                    Molecular_Weight:             353.378
##########                DOCK_Rotatable_Bonds:                   7
##########                       Formal_Charge:        -2.98023e-08
##########                     HBond_Acceptors:                   7
##########                        HBond_Donors:                   0
##########                         Heavy_Atoms:                  26
##########                          Grid_Score:          -33.359756
##########                     Grid_vdw_energy:          -32.496151
##########                      Grid_es_energy:           -0.863605
##########           Internal_energy_repulsive:           14.324490

@<TRIPOS>MOLECULE
ZINC000420486261
 45 47 1 0 0
SMALL
USER_CHARGES


@<TRIPOS>ATOM
      1 C1         -7.2042    1.3409   68.3711 C.3     1  ZINC000420486261    0.0400
      2 O2         -7.8520    1.5707   67.0921 O.3     1  ZINC000420486261   -0.3500
      3 C3         -8.0842    0.4908   66.3217 C.2     1  ZINC000420486261    0.5100
      4 O4         -7.7556   -0.6126   66.7078 O.2     1  ZINC000420486261   -0.4900
      5 C5         -8.7402    0.6489   65.0038 C.ar    1  ZINC000420486261   -0.0700
      6 C6         -9.3194    1.8665   64.6316 C.ar    1  ZINC000420486261   -0.0900
      7 C7         -9.9231    1.9760   63.3910 C.ar    1  ZINC000420486261    0.1100
      8 N8         -9.9596    0.9555   62.5618 N.ar    1  ZINC000420486261   -0.4200
      9 C9         -9.4240   -0.2192   62.8699 C.ar    1  ZINC000420486261    0.1900
     10 C10        -9.4937   -1.3334   61.8982 C.2     1  ZINC000420486261    0.2200
     11 N11       -10.3081   -1.4244   60.8649 N.2     1  ZINC000420486261   -0.4300
     12 C12       -10.0114   -2.6010   60.2739 C.2     1  ZINC000420486261    0.2200
     13 C13       -10.6569   -3.1631   59.0624 C.ar    1  ZINC000420486261   -0.0600
     14 C14       -10.3555   -4.4575   58.6459 C.ar    1  ZINC000420486261   -0.0300
     15 C15       -10.9587   -4.9760   57.5180 C.ar    1  ZINC000420486261   -0.1600
     16 C16       -11.8626   -4.2145   56.7984 C.ar    1  ZINC000420486261   -0.0600
     17 C17       -12.1690   -2.9292   57.2026 C.ar    1  ZINC000420486261   -0.2200
     18 C18       -11.5751   -2.3978   58.3366 C.ar    1  ZINC000420486261    0.1700
     19 O19       -11.8754   -1.1348   58.7350 O.3     1  ZINC000420486261   -0.2900
     20 C20       -13.2603   -0.8069   58.8626 C.3     1  ZINC000420486261    0.0600
     21 C21       -13.7140   -1.0603   60.3017 C.3     1  ZINC000420486261   -0.0900
     22 C22       -14.8435   -0.0920   60.6585 C.3     1  ZINC000420486261   -0.1500
     23 C23       -14.2160   -2.4998   60.4321 C.3     1  ZINC000420486261   -0.1500
     24 N24        -9.0488   -3.1542   60.9671 N.2     1  ZINC000420486261   -0.3400
     25 O25        -8.7364   -2.4410   61.8969 O.3     1  ZINC000420486261    0.1000
     26 C26        -8.7919   -0.4125   64.0965 C.ar    1  ZINC000420486261   -0.0700
     27 H27        -7.0768    2.2911   68.8898 H       1  ZINC000420486261    0.1100
     28 H28        -7.8207    0.6763   68.9765 H       1  ZINC000420486261    0.0700
     29 H29        -6.2288    0.8828   68.2073 H       1  ZINC000420486261    0.0700
     30 H30        -9.2962    2.7111   65.3044 H       1  ZINC000420486261    0.1600
     31 H31       -10.3717    2.9141   63.0992 H       1  ZINC000420486261    0.1800
     32 H32        -9.6502   -5.0548   59.2047 H       1  ZINC000420486261    0.1400
     33 H33       -10.7240   -5.9797   57.1956 H       1  ZINC000420486261    0.1300
     34 H34       -12.3305   -4.6265   55.9166 H       1  ZINC000420486261    0.1300
     35 H35       -12.8753   -2.3396   56.6370 H       1  ZINC000420486261    0.1400
     36 H36       -13.4093    0.2439   58.6145 H       1  ZINC000420486261    0.0600
     37 H37       -13.8446   -1.4271   58.1829 H       1  ZINC000420486261    0.0600
     38 H38       -12.8747   -0.9055   60.9798 H       1  ZINC000420486261    0.0800
     39 H39       -15.6827   -0.2469   59.9804 H       1  ZINC000420486261    0.0600
     40 H40       -15.1666   -0.2725   61.6837 H       1  ZINC000420486261    0.0700
     41 H41       -14.4858    0.9335   60.5656 H       1  ZINC000420486261    0.0600
     42 H42       -15.0552   -2.6547   59.7540 H       1  ZINC000420486261    0.0500
     43 H43       -13.4113   -3.1897   60.1779 H       1  ZINC000420486261    0.0600
     44 H44       -14.5392   -2.6804   61.4574 H       1  ZINC000420486261    0.0600
     45 H45        -8.3564   -1.3690   64.3450 H       1  ZINC000420486261    0.1600
@<TRIPOS>BOND
     1     1     2    1
     2     1    27    1
     3     1    28    1
     4     1    29    1
     5     2     3    1
     6     3     4    2
     7     3     5    1
     8     5    26   ar
     9     5     6   ar
    10     6     7   ar
    11     6    30    1
    12     7     8   ar
    13     7    31    1
    14     8     9   ar
    15     9    10    1
    16     9    26   ar
    17    10    25    1
    18    10    11    2
    19    11    12    1
    20    12    13    1
    21    12    24    2
    22    13    18   ar
    23    13    14   ar
    24    14    15   ar
    25    14    32    1
    26    15    16   ar
    27    15    33    1
    28    16    17   ar
    29    16    34    1
    30    17    18   ar
    31    17    35    1
    32    18    19    1
    33    19    20    1
    34    20    21    1
    35    20    36    1
    36    20    37    1
    37    21    22    1
    38    21    23    1
    39    21    38    1
    40    22    39    1
    41    22    40    1
    42    22    41    1
    43    23    42    1
    44    23    43    1
    45    23    44    1
    46    24    25    1
    47    26    45    1
@<TRIPOS>SUBSTRUCTURE
     1 ZINC000420486261        1 TEMP              0 ****  ****    0 ROOT


##########                                Name:    ZINC001074839487
##########                DOCK_Rotatable_Bonds:                   7
##########                         Heavy_Atoms:                  25
##########                    Molecular_Weight:             344.454
##########                DOCK_Rotatable_Bonds:                   7
##########                       Formal_Charge:          -0.0500005
##########                     HBond_Acceptors:                   5
##########                        HBond_Donors:                   1
##########                         Heavy_Atoms:                  25
##########                          Grid_Score:          -33.338673
##########                     Grid_vdw_energy:          -33.224094
##########                      Grid_es_energy:           -0.114578
##########           Internal_energy_repulsive:           95.432999

@<TRIPOS>MOLECULE
ZINC001074839487
 53 55 1 0 0
SMALL
USER_CHARGES


@<TRIPOS>ATOM
      1 C1        -14.9906   -0.2101   48.0500 C.3     1  ZINC001074839487   -0.1500
      2 C2        -15.0180   -0.6780   49.5065 C.3     1  ZINC001074839487   -0.1300
      3 C3        -14.2355    0.3097   50.3743 C.3     1  ZINC001074839487   -0.1100
      4 C4        -14.2617   -0.1589   51.8305 C.3     1  ZINC001074839487   -0.1400
      5 C5        -13.3273   -1.3292   51.9985 C.2     1  ZINC001074839487    0.5100
      6 O6        -12.9129   -1.9193   51.0233 O.2     1  ZINC001074839487   -0.5400
      7 N7        -12.9520   -1.7202   53.2325 N.am    1  ZINC001074839487   -0.7300
      8 C8        -12.0423   -2.8568   53.3957 C.3     1  ZINC001074839487    0.1400
      9 H9        -11.5182   -3.0401   52.4577 H       1  ZINC001074839487    0.0900
     10 C10       -11.0251   -2.5420   54.4951 C.3     1  ZINC001074839487   -0.1500
     11 C11       -11.7669   -2.2514   55.8035 C.3     1  ZINC001074839487    0.0700
     12 N12       -12.6521   -3.3841   56.1069 N.am    1  ZINC001074839487   -0.6000
     13 C13       -12.5886   -4.0045   57.3017 C.2     1  ZINC001074839487    0.5600
     14 O14       -13.3265   -4.9404   57.5407 O.2     1  ZINC001074839487   -0.5200
     15 C15       -11.6215   -3.5466   58.3219 C.ar    1  ZINC001074839487   -0.1300
     16 C16       -10.4284   -4.2433   58.5191 C.ar    1  ZINC001074839487   -0.1000
     17 C17        -9.5290   -3.8115   59.4730 C.ar    1  ZINC001074839487   -0.1000
     18 C18        -9.8081   -2.6919   60.2317 C.ar    1  ZINC001074839487   -0.1100
     19 C19        -9.0449   -1.9847   61.3279 C.3     1  ZINC001074839487    0.0900
     20 O20       -10.0057   -1.1576   62.0091 O.3     1  ZINC001074839487   -0.3600
     21 C21       -10.9942   -0.8380   61.0129 C.3     1  ZINC001074839487    0.0900
     22 C22       -10.9929   -1.9946   60.0405 C.ar    1  ZINC001074839487   -0.1400
     23 C23       -11.8955   -2.4116   59.0884 C.ar    1  ZINC001074839487   -0.0400
     24 C24       -13.6075   -3.8282   55.0829 C.3     1  ZINC001074839487    0.1500
     25 H25       -14.3507   -3.0488   54.9140 H       1  ZINC001074839487    0.0700
     26 C26       -14.3009   -5.1097   55.5495 C.3     1  ZINC001074839487   -0.1400
     27 C27       -12.8452   -4.1010   53.7824 C.3     1  ZINC001074839487   -0.1400
     28 H28       -15.4460    0.7775   47.9771 H       1  ZINC001074839487    0.0500
     29 H29       -15.5481   -0.9138   47.4318 H       1  ZINC001074839487    0.0500
     30 H30       -13.9583   -0.1607   47.7036 H       1  ZINC001074839487    0.0500
     31 H31       -16.0502   -0.7274   49.8530 H       1  ZINC001074839487    0.0600
     32 H32       -14.5625   -1.6656   49.5794 H       1  ZINC001074839487    0.0600
     33 H33       -13.2034    0.3598   50.0272 H       1  ZINC001074839487    0.0700
     34 H34       -14.6914    1.2972   50.3021 H       1  ZINC001074839487    0.0700
     35 H35       -13.9434    0.6564   52.4802 H       1  ZINC001074839487    0.0900
     36 H36       -15.2744   -0.4614   52.0966 H       1  ZINC001074839487    0.0900
     37 H37       -13.2844   -1.2491   54.0125 H       1  ZINC001074839487    0.4000
     38 H38       -10.3635   -3.3969   54.6341 H       1  ZINC001074839487    0.0800
     39 H39       -10.4379   -1.6697   54.2083 H       1  ZINC001074839487    0.0800
     40 H40       -11.0465   -2.1241   56.6114 H       1  ZINC001074839487    0.1200
     41 H41       -12.3600   -1.3435   55.6935 H       1  ZINC001074839487    0.0700
     42 H42       -10.2090   -5.1189   57.9259 H       1  ZINC001074839487    0.1500
     43 H43        -8.6054   -4.3498   59.6260 H       1  ZINC001074839487    0.1400
     44 H44        -8.6190   -2.7124   62.0186 H       1  ZINC001074839487    0.1000
     45 H45        -8.2559   -1.3675   60.8981 H       1  ZINC001074839487    0.0800
     46 H46       -11.9757   -0.7380   61.4762 H       1  ZINC001074839487    0.1000
     47 H47       -10.7249    0.0848   60.4992 H       1  ZINC001074839487    0.0800
     48 H48       -12.8148   -1.8653   58.9375 H       1  ZINC001074839487    0.1400
     49 H49       -14.9281   -4.8895   56.4134 H       1  ZINC001074839487    0.0800
     50 H50       -14.9192   -5.5028   54.7424 H       1  ZINC001074839487    0.0500
     51 H51       -13.5496   -5.8497   55.8250 H       1  ZINC001074839487    0.0700
     52 H52       -13.5532   -4.3383   52.9885 H       1  ZINC001074839487    0.0900
     53 H53       -12.1663   -4.9412   53.9282 H       1  ZINC001074839487    0.0900
@<TRIPOS>BOND
     1     1     2    1
     2     1    28    1
     3     1    29    1
     4     1    30    1
     5     2     3    1
     6     2    31    1
     7     2    32    1
     8     3     4    1
     9     3    33    1
    10     3    34    1
    11     4     5    1
    12     4    35    1
    13     4    36    1
    14     5     6    2
    15     5     7   am
    16     7     8    1
    17     7    37    1
    18     8     9    1
    19     8    27    1
    20     8    10    1
    21    10    11    1
    22    10    38    1
    23    10    39    1
    24    11    12    1
    25    11    40    1
    26    11    41    1
    27    12    13   am
    28    12    24    1
    29    13    14    2
    30    13    15    1
    31    15    23   ar
    32    15    16   ar
    33    16    17   ar
    34    16    42    1
    35    17    18   ar
    36    17    43    1
    37    18    22   ar
    38    18    19    1
    39    19    20    1
    40    19    44    1
    41    19    45    1
    42    20    21    1
    43    21    22    1
    44    21    46    1
    45    21    47    1
    46    22    23   ar
    47    23    48    1
    48    24    25    1
    49    24    26    1
    50    24    27    1
    51    26    49    1
    52    26    50    1
    53    26    51    1
    54    27    52    1
    55    27    53    1
@<TRIPOS>SUBSTRUCTURE
     1 ZINC001074839487        1 TEMP              0 ****  ****    0 ROOT


##########                                Name:    ZINC001127302705
##########                DOCK_Rotatable_Bonds:                   9
##########                         Heavy_Atoms:                  28
##########                    Molecular_Weight:             398.892
##########                DOCK_Rotatable_Bonds:                   9
##########                       Formal_Charge:          -0.0200002
##########                     HBond_Acceptors:                   7
##########                        HBond_Donors:                   1
##########                         Heavy_Atoms:                  28
##########                          Grid_Score:          -33.327160
##########                     Grid_vdw_energy:          -33.294876
##########                      Grid_es_energy:           -0.032284
##########           Internal_energy_repulsive:           27.941433

@<TRIPOS>MOLECULE
ZINC001127302705
 51 53 1 0 0
SMALL
USER_CHARGES


@<TRIPOS>ATOM
      1 C1        -10.6801   -3.3748   53.1547 C.3     1  ZINC001127302705   -0.1500
      2 C2        -12.1351   -3.0057   53.4512 C.3     1  ZINC001127302705   -0.1400
      3 C3        -12.1984   -2.1684   54.7302 C.3     1  ZINC001127302705    0.1800
      4 C4        -13.5354   -1.4269   54.7886 C.3     1  ZINC001127302705   -0.1600
      5 C5        -12.0707   -3.0864   55.9476 C.3     1  ZINC001127302705    0.0700
      6 O6        -10.7321   -3.0339   56.4452 O.3     1  ZINC001127302705   -0.2800
      7 C7        -10.5680   -2.6297   57.7302 C.ar    1  ZINC001127302705    0.3400
      8 N8        -10.6531   -1.3443   58.0283 N.ar    1  ZINC001127302705   -0.5300
      9 C9        -10.5005   -0.9084   59.2646 C.ar    1  ZINC001127302705    0.1400
     10 C10       -10.2442   -1.7864   60.2984 C.ar    1  ZINC001127302705   -0.2000
     11 C11       -10.1471   -3.1446   60.0280 C.ar    1  ZINC001127302705   -0.0300
     12 C12       -10.3177   -3.5715   58.7218 C.ar    1  ZINC001127302705   -0.1100
     13 Cl13      -10.2072   -5.2580   58.3257 Cl      1  ZINC001127302705   -0.0400
     14 N14       -11.1011   -1.1978   54.7333 N.am    1  ZINC001127302705   -0.7100
     15 C15       -10.9886   -0.3046   53.7302 C.2     1  ZINC001127302705    0.6200
     16 O16       -11.7986   -0.3036   52.8235 O.2     1  ZINC001127302705   -0.5200
     17 C17        -9.8813    0.6728   53.7323 C.2     1  ZINC001127302705   -0.0200
     18 N18        -9.4690    1.3933   52.7084 N.2     1  ZINC001127302705   -0.2500
     19 N19        -8.4849    2.1396   53.0622 N.pl3   1  ZINC001127302705   -0.2800
     20 C20        -7.7793    3.0705   52.1781 C.3     1  ZINC001127302705    0.1600
     21 C21        -6.5467    2.4022   51.6258 C.ar    1  ZINC001127302705   -0.1200
     22 C22        -6.6121    1.0984   51.1715 C.ar    1  ZINC001127302705   -0.1000
     23 C23        -5.4814    0.4854   50.6649 C.ar    1  ZINC001127302705   -0.1200
     24 C24        -4.2853    1.1764   50.6124 C.ar    1  ZINC001127302705   -0.1100
     25 C25        -4.2201    2.4806   51.0659 C.ar    1  ZINC001127302705   -0.1200
     26 C26        -5.3519    3.0950   51.5685 C.ar    1  ZINC001127302705   -0.0800
     27 C27        -8.1946    1.9426   54.3662 C.2     1  ZINC001127302705   -0.0200
     28 C28        -9.0654    1.0185   54.8356 C.2     1  ZINC001127302705   -0.1800
     29 H29       -10.2747   -3.9508   53.9866 H       1  ZINC001127302705    0.0500
     30 H30       -10.6351   -3.9712   52.2436 H       1  ZINC001127302705    0.0600
     31 H31       -10.0942   -2.4651   53.0229 H       1  ZINC001127302705    0.0500
     32 H32       -12.5405   -2.4296   52.6194 H       1  ZINC001127302705    0.0900
     33 H33       -12.7211   -3.9153   53.5830 H       1  ZINC001127302705    0.0800
     34 H34       -14.3519   -2.1491   54.7864 H       1  ZINC001127302705    0.0700
     35 H35       -13.5805   -0.8304   55.6998 H       1  ZINC001127302705    0.0500
     36 H36       -13.6264   -0.7729   53.9214 H       1  ZINC001127302705    0.0800
     37 H37       -12.7605   -2.7573   56.7248 H       1  ZINC001127302705    0.0800
     38 H38       -12.3108   -4.1093   55.6581 H       1  ZINC001127302705    0.0700
     39 H39       -10.5769    0.1492   59.4701 H       1  ZINC001127302705    0.1700
     40 H40       -10.1201   -1.4206   61.3070 H       1  ZINC001127302705    0.1500
     41 H41        -9.9473   -3.8525   60.8187 H       1  ZINC001127302705    0.1500
     42 H42       -10.4556   -1.1978   55.4572 H       1  ZINC001127302705    0.4100
     43 H43        -8.4350    3.3594   51.3568 H       1  ZINC001127302705    0.1000
     44 H44        -7.4900    3.9578   52.7414 H       1  ZINC001127302705    0.1100
     45 H45        -7.5466    0.5585   51.2124 H       1  ZINC001127302705    0.1200
     46 H46        -5.5324   -0.5336   50.3105 H       1  ZINC001127302705    0.1300
     47 H47        -3.4017    0.6973   50.2173 H       1  ZINC001127302705    0.1200
     48 H48        -3.2856    3.0203   51.0253 H       1  ZINC001127302705    0.1300
     49 H49        -5.3009    4.1139   51.9229 H       1  ZINC001127302705    0.1300
     50 H50        -7.4161    2.4341   54.9306 H       1  ZINC001127302705    0.1800
     51 H51        -9.1209    0.6229   55.8390 H       1  ZINC001127302705    0.1600
@<TRIPOS>BOND
     1     1     2    1
     2     1    29    1
     3     1    30    1
     4     1    31    1
     5     2     3    1
     6     2    32    1
     7     2    33    1
     8     3     4    1
     9     3     5    1
    10     3    14    1
    11     4    34    1
    12     4    35    1
    13     4    36    1
    14     5     6    1
    15     5    37    1
    16     5    38    1
    17     6     7    1
    18     7    12   ar
    19     7     8   ar
    20     8     9   ar
    21     9    10   ar
    22     9    39    1
    23    10    11   ar
    24    10    40    1
    25    11    12   ar
    26    11    41    1
    27    12    13    1
    28    14    15   am
    29    14    42    1
    30    15    16    2
    31    15    17    1
    32    17    28    1
    33    17    18    2
    34    18    19    1
    35    19    20    1
    36    19    27    1
    37    20    21    1
    38    20    43    1
    39    20    44    1
    40    21    26   ar
    41    21    22   ar
    42    22    23   ar
    43    22    45    1
    44    23    24   ar
    45    23    46    1
    46    24    25   ar
    47    24    47    1
    48    25    26   ar
    49    25    48    1
    50    26    49    1
    51    27    28    2
    52    27    50    1
    53    28    51    1
@<TRIPOS>SUBSTRUCTURE
     1 ZINC001127302705        1 TEMP              0 ****  ****    0 ROOT


##########                                Name:    ZINC001328997126
##########                DOCK_Rotatable_Bonds:                   7
##########                         Heavy_Atoms:                  26
##########                    Molecular_Weight:             388.488
##########                DOCK_Rotatable_Bonds:                   7
##########                       Formal_Charge:           0.0299993
##########                     HBond_Acceptors:                  10
##########                        HBond_Donors:                   1
##########                         Heavy_Atoms:                  26
##########                          Grid_Score:          -33.317188
##########                     Grid_vdw_energy:          -33.414814
##########                      Grid_es_energy:            0.097626
##########           Internal_energy_repulsive:           18.358189

@<TRIPOS>MOLECULE
ZINC001328997126
 54 56 1 0 0
SMALL
USER_CHARGES


@<TRIPOS>ATOM
      1 C1         -8.6314   -0.1496   52.6794 C.3     1  ZINC001328997126   -0.1700
      2 C2         -9.8609   -0.2166   53.5877 C.3     1  ZINC001328997126    0.1400
      3 N3        -10.9472   -0.9078   52.8888 N.am    1  ZINC001328997126   -0.6300
      4 C4        -12.2330   -0.3080   52.5010 C.3     1  ZINC001328997126    0.0700
      5 C5        -12.9824   -1.4626   51.8083 C.3     1  ZINC001328997126    0.0700
      6 H6        -13.1988   -1.2094   50.7705 H       1  ZINC001328997126    0.1200
      7 C7        -14.2744   -1.7906   52.5595 C.3     1  ZINC001328997126    0.0500
      8 N8        -13.9494   -2.4842   53.8130 N.3     1  ZINC001328997126   -0.5300
      9 C9        -14.0326   -3.9418   53.6453 C.3     1  ZINC001328997126    0.0500
     10 C10       -13.6109   -4.6273   54.9471 C.3     1  ZINC001328997126    0.0600
     11 N11       -14.4826   -4.1751   56.0404 N.3     1  ZINC001328997126   -0.5200
     12 C12       -14.1575   -4.8687   57.2940 C.3     1  ZINC001328997126    0.0400
     13 C13       -12.7983   -4.4289   57.7736 C.2     1  ZINC001328997126    0.5200
     14 O14       -11.8211   -5.1043   57.5287 O.2     1  ZINC001328997126   -0.5100
     15 N15       -12.6686   -3.2852   58.4748 N.am    1  ZINC001328997126   -0.7300
     16 C16       -11.3474   -2.8586   58.9425 C.3     1  ZINC001328997126    0.1600
     17 H17       -10.7650   -3.7306   59.2402 H       1  ZINC001328997126    0.1100
     18 C18       -10.6166   -2.1088   57.8150 C.3     1  ZINC001328997126   -0.1400
     19 C19        -9.3956   -1.4093   58.4662 C.3     1  ZINC001328997126   -0.5800
     20 S20       -10.1000   -0.7449   60.0225 S.o2    1  ZINC001328997126    2.4000
     21 O21        -9.1936   -0.9857   61.0901 O.2     1  ZINC001328997126   -0.9300
     22 O22       -10.5913    0.5687   59.7939 O.2     1  ZINC001328997126   -0.9300
     23 C23       -11.5058   -1.9061   60.1444 C.3     1  ZINC001328997126   -0.6100
     24 C24       -14.3992   -2.7176   56.2082 C.3     1  ZINC001328997126    0.0500
     25 C25       -14.8209   -2.0320   54.9064 C.3     1  ZINC001328997126    0.0600
     26 O26       -12.0501   -2.5801   51.8778 O.3     1  ZINC001328997126   -0.3100
     27 C27       -10.9291   -2.1882   52.4936 C.2     1  ZINC001328997126    0.6400
     28 O28        -9.9842   -2.9277   52.6845 O.2     1  ZINC001328997126   -0.5200
     29 H29        -8.3135   -1.1603   52.4233 H       1  ZINC001328997126    0.0600
     30 H30        -8.8817    0.3944   51.7687 H       1  ZINC001328997126    0.0600
     31 H31        -7.8232    0.3647   53.1994 H       1  ZINC001328997126    0.0700
     32 H32        -9.6106   -0.7606   54.4984 H       1  ZINC001328997126    0.0900
     33 H33       -10.1788    0.7941   53.8439 H       1  ZINC001328997126    0.0900
     34 H34       -12.7794    0.0291   53.3819 H       1  ZINC001328997126    0.0900
     35 H35       -12.0765    0.5178   51.8070 H       1  ZINC001328997126    0.0900
     36 H36       -14.8090   -0.8674   52.7831 H       1  ZINC001328997126    0.0900
     37 H37       -14.9012   -2.4328   51.9409 H       1  ZINC001328997126    0.0600
     38 H38       -15.0576   -4.2218   53.4023 H       1  ZINC001328997126    0.0500
     39 H39       -13.3692   -4.2535   52.8386 H       1  ZINC001328997126    0.0900
     40 H40       -13.6996   -5.7078   54.8343 H       1  ZINC001328997126    0.0800
     41 H41       -12.5770   -4.3688   55.1757 H       1  ZINC001328997126    0.0500
     42 H42       -14.9055   -4.6249   58.0485 H       1  ZINC001328997126    0.1100
     43 H43       -14.1516   -5.9451   57.1227 H       1  ZINC001328997126    0.0700
     44 H44       -13.4500   -2.7446   58.6697 H       1  ZINC001328997126    0.4100
     45 H45       -10.2810   -2.8136   57.0543 H       1  ZINC001328997126    0.1100
     46 H46       -11.2790   -1.3661   57.3702 H       1  ZINC001328997126    0.0900
     47 H47        -8.6041   -2.1287   58.6759 H       1  ZINC001328997126    0.1400
     48 H48        -9.0285   -0.6023   57.8322 H       1  ZINC001328997126    0.1400
     49 H49       -12.4500   -1.3655   60.0789 H       1  ZINC001328997126    0.1400
     50 H50       -11.4536   -2.4669   61.0775 H       1  ZINC001328997126    0.1500
     51 H51       -15.0627   -2.4058   57.0148 H       1  ZINC001328997126    0.1000
     52 H52       -13.3742   -2.4375   56.4511 H       1  ZINC001328997126    0.0400
     53 H53       -14.7321   -0.9515   55.0191 H       1  ZINC001328997126    0.0800
     54 H54       -15.8549   -2.2905   54.6777 H       1  ZINC001328997126    0.0500
@<TRIPOS>BOND
     1     1     2    1
     2     1    29    1
     3     1    30    1
     4     1    31    1
     5     2     3    1
     6     2    32    1
     7     2    33    1
     8     3    27   am
     9     3     4    1
    10     4     5    1
    11     4    34    1
    12     4    35    1
    13     5     6    1
    14     5     7    1
    15     5    26    1
    16     7     8    1
    17     7    36    1
    18     7    37    1
    19     8    25    1
    20     8     9    1
    21     9    10    1
    22     9    38    1
    23     9    39    1
    24    10    11    1
    25    10    40    1
    26    10    41    1
    27    11    12    1
    28    11    24    1
    29    12    13    1
    30    12    42    1
    31    12    43    1
    32    13    14    2
    33    13    15   am
    34    15    16    1
    35    15    44    1
    36    16    17    1
    37    16    23    1
    38    16    18    1
    39    18    19    1
    40    18    45    1
    41    18    46    1
    42    19    20    1
    43    19    47    1
    44    19    48    1
    45    20    21    2
    46    20    22    2
    47    20    23    1
    48    23    49    1
    49    23    50    1
    50    24    25    1
    51    24    51    1
    52    24    52    1
    53    25    53    1
    54    25    54    1
    55    26    27    1
    56    27    28    2
@<TRIPOS>SUBSTRUCTURE
     1 ZINC001328997126        1 TEMP              0 ****  ****    0 ROOT


##########                                Name:    ZINC000053543817
##########                DOCK_Rotatable_Bonds:                   7
##########                         Heavy_Atoms:                  25
##########                    Molecular_Weight:             350.458
##########                DOCK_Rotatable_Bonds:                   7
##########                       Formal_Charge:           0.0199998
##########                     HBond_Acceptors:                   6
##########                        HBond_Donors:                   2
##########                         Heavy_Atoms:                  25
##########                          Grid_Score:          -33.316158
##########                     Grid_vdw_energy:          -33.886021
##########                      Grid_es_energy:            0.569864
##########           Internal_energy_repulsive:           34.103706

@<TRIPOS>MOLECULE
ZINC000053543817
 55 56 1 0 0
SMALL
USER_CHARGES


@<TRIPOS>ATOM
      1 C1        -11.4692   -3.0765   53.8672 C.3     1  ZINC000053543817   -0.0700
      2 C2        -11.0192   -2.7663   55.2717 C.2     1  ZINC000053543817   -0.0200
      3 C3        -10.7396   -1.5402   55.7563 C.2     1  ZINC000053543817   -0.1800
      4 C4        -10.3618   -1.7148   57.0998 C.2     1  ZINC000053543817   -0.1900
      5 C5        -10.4313   -3.0356   57.3644 C.2     1  ZINC000053543817    0.0000
      6 C6        -10.1038   -3.6437   58.7064 C.3     1  ZINC000053543817   -0.0300
      7 C7        -10.1077   -2.5278   59.7581 C.3     1  ZINC000053543817   -0.0500
      8 C8        -11.5416   -2.0435   59.9822 C.3     1  ZINC000053543817   -0.1500
      9 C9         -9.5397   -3.0651   61.0733 C.3     1  ZINC000053543817   -0.1400
     10 C10        -9.2455   -1.3605   59.2696 C.3     1  ZINC000053543817   -0.1200
     11 C11        -9.9476   -0.6642   58.0967 C.3     1  ZINC000053543817    0.2200
     12 H12       -10.8282   -0.1336   58.4587 H       1  ZINC000053543817    0.1000
     13 N13        -9.0271    0.2828   57.4626 N.am    1  ZINC000053543817   -0.7100
     14 C14        -9.1014    1.5956   57.7583 C.2     1  ZINC000053543817    0.5100
     15 O15        -9.9313    1.9932   58.5483 O.2     1  ZINC000053543817   -0.5300
     16 C16        -8.1533    2.5695   57.1073 C.3     1  ZINC000053543817    0.1400
     17 H17        -7.9994    3.4232   57.7672 H       1  ZINC000053543817    0.1200
     18 C18        -8.7467    3.0502   55.7816 C.3     1  ZINC000053543817   -0.1600
     19 N19        -6.8701    1.9083   56.8568 N.am    1  ZINC000053543817   -0.7000
     20 C20        -5.7175    2.5819   57.0420 C.2     1  ZINC000053543817    0.6600
     21 O21        -5.7427    3.7380   57.4153 O.2     1  ZINC000053543817   -0.5700
     22 O22        -4.5383    1.9738   56.8134 O.3     1  ZINC000053543817   -0.3600
     23 C23        -3.3369    2.7495   57.0647 C.3     1  ZINC000053543817    0.1400
     24 C24        -2.1049    1.8920   56.7689 C.3     1  ZINC000053543817   -0.1800
     25 C25        -3.3283    3.9838   56.1607 C.3     1  ZINC000053543817   -0.1400
     26 C26        -3.3116    3.1902   58.5298 C.3     1  ZINC000053543817   -0.1800
     27 O27       -10.8344   -3.6658   56.2546 O.3     1  ZINC000053543817   -0.1700
     28 H28       -11.6243   -4.1505   53.7642 H       1  ZINC000053543817    0.0800
     29 H29       -12.4029   -2.5532   53.6609 H       1  ZINC000053543817    0.0800
     30 H30       -10.7060   -2.7502   53.1607 H       1  ZINC000053543817    0.0800
     31 H31       -10.7946   -0.6057   55.2177 H       1  ZINC000053543817    0.1400
     32 H32       -10.8543   -4.3915   58.9628 H       1  ZINC000053543817    0.0900
     33 H33        -9.1182   -4.1075   58.6678 H       1  ZINC000053543817    0.0900
     34 H34       -12.1552   -2.8740   60.3312 H       1  ZINC000053543817    0.0600
     35 H35       -11.5445   -1.2503   60.7298 H       1  ZINC000053543817    0.0600
     36 H36       -11.9465   -1.6613   59.0453 H       1  ZINC000053543817    0.0600
     37 H37        -8.5184   -3.4107   60.9138 H       1  ZINC000053543817    0.0600
     38 H38        -9.5423   -2.2721   61.8211 H       1  ZINC000053543817    0.0600
     39 H39       -10.1540   -3.8954   61.4220 H       1  ZINC000053543817    0.0600
     40 H40        -9.1032   -0.6486   60.0825 H       1  ZINC000053543817    0.0800
     41 H41        -8.2764   -1.7368   58.9419 H       1  ZINC000053543817    0.0700
     42 H42        -8.3641   -0.0350   56.8299 H       1  ZINC000053543817    0.4000
     43 H43        -9.7014    3.5420   55.9679 H       1  ZINC000053543817    0.0800
     44 H44        -8.0609    3.7545   55.3106 H       1  ZINC000053543817    0.0800
     45 H45        -8.9005    2.1964   55.1216 H       1  ZINC000053543817    0.0700
     46 H46        -6.8501    0.9858   56.5577 H       1  ZINC000053543817    0.4200
     47 H47        -2.1229    1.5780   55.7252 H       1  ZINC000053543817    0.0600
     48 H48        -1.2029    2.4743   56.9576 H       1  ZINC000053543817    0.0700
     49 H49        -2.1111    1.0126   57.4130 H       1  ZINC000053543817    0.0900
     50 H50        -4.2060    4.5948   56.3716 H       1  ZINC000053543817    0.0700
     51 H51        -2.4263    4.5661   56.3495 H       1  ZINC000053543817    0.0800
     52 H52        -3.3463    3.6699   55.1171 H       1  ZINC000053543817    0.0700
     53 H53        -3.3178    2.3109   59.1738 H       1  ZINC000053543817    0.0900
     54 H54        -2.4098    3.7726   58.7185 H       1  ZINC000053543817    0.0700
     55 H55        -4.1893    3.8011   58.7405 H       1  ZINC000053543817    0.0600
@<TRIPOS>BOND
     1     1     2    1
     2     1    28    1
     3     1    29    1
     4     1    30    1
     5     2    27    1
     6     2     3    2
     7     3     4    1
     8     3    31    1
     9     4    11    1
    10     4     5    2
    11     5     6    1
    12     5    27    1
    13     6     7    1
    14     6    32    1
    15     6    33    1
    16     7     8    1
    17     7     9    1
    18     7    10    1
    19     8    34    1
    20     8    35    1
    21     8    36    1
    22     9    37    1
    23     9    38    1
    24     9    39    1
    25    10    11    1
    26    10    40    1
    27    10    41    1
    28    11    12    1
    29    11    13    1
    30    13    14   am
    31    13    42    1
    32    14    15    2
    33    14    16    1
    34    16    17    1
    35    16    18    1
    36    16    19    1
    37    18    43    1
    38    18    44    1
    39    18    45    1
    40    19    20   am
    41    19    46    1
    42    20    21    2
    43    20    22    1
    44    22    23    1
    45    23    24    1
    46    23    25    1
    47    23    26    1
    48    24    47    1
    49    24    48    1
    50    24    49    1
    51    25    50    1
    52    25    51    1
    53    25    52    1
    54    26    53    1
    55    26    54    1
    56    26    55    1
@<TRIPOS>SUBSTRUCTURE
     1 ZINC000053543817        1 TEMP              0 ****  ****    0 ROOT


##########                                Name:    ZINC000006915700
##########                DOCK_Rotatable_Bonds:                   5
##########                         Heavy_Atoms:                  26
##########                    Molecular_Weight:             369.447
##########                DOCK_Rotatable_Bonds:                   5
##########                       Formal_Charge:        -1.04308e-07
##########                     HBond_Acceptors:                   8
##########                        HBond_Donors:                   1
##########                         Heavy_Atoms:                  26
##########                          Grid_Score:          -33.303074
##########                     Grid_vdw_energy:          -30.847544
##########                      Grid_es_energy:           -2.455531
##########           Internal_energy_repulsive:            4.077474

@<TRIPOS>MOLECULE
ZINC000006915700
 45 48 1 0 0
SMALL
USER_CHARGES


@<TRIPOS>ATOM
      1 C1         -6.6116    4.4614   55.5773 C.3     1  <0>        -0.1200
      2 C2         -7.3405    3.1909   55.9318 C.ar    1  <0>        -0.0500
      3 C3         -7.5922    2.2454   54.9536 C.ar    1  <0>        -0.1300
      4 C4         -8.2587    1.0799   55.2719 C.ar    1  <0>        -0.0600
      5 C5         -8.6790    0.8562   56.5832 C.ar    1  <0>        -0.0700
      6 C6         -9.3944   -0.3929   56.9317 C.2     1  <0>         0.4400
      7 N7        -10.3251   -0.8616   56.1108 N.2     1  <0>        -0.5200
      8 C8        -10.9787   -1.9878   56.4118 C.2     1  <0>         0.3600
      9 C9        -11.9772   -2.7075   55.7681 C.2     1  <0>        -0.3200
     10 C10       -12.2776   -3.8180   56.5584 C.2     1  <0>         0.5500
     11 O11       -13.1098   -4.6726   56.3011 O.2     1  <0>        -0.5200
     12 N12       -11.4928   -3.7873   57.6532 N.am    1  <0>        -0.5000
     13 N13       -10.6760   -2.6547   57.5810 N.pl3   1  <0>        -0.3300
     14 C14        -9.7131   -2.1465   58.4045 C.2     1  <0>         0.3900
     15 S15        -9.3016   -2.9728   59.9054 S.3     1  <0>         0.1200
     16 C16        -9.1778   -1.5534   61.0217 C.3     1  <0>        -0.1500
     17 C17       -10.5497   -1.1949   61.5323 C.2     1  <0>         0.5500
     18 O18       -11.5013   -1.8946   61.2569 O.2     1  <0>        -0.5200
     19 N19       -10.7191   -0.0966   62.2948 N.am    1  <0>        -0.6100
     20 C20        -9.6585    0.8380   62.6988 C.3     1  <0>         0.0900
     21 C21       -10.3138    1.9208   63.5819 C.3     1  <0>        -0.1300
     22 C22       -11.6016    1.2212   64.0912 C.3     1  <0>        -0.1400
     23 C23       -11.9996    0.3701   62.8569 C.3     1  <0>         0.1000
     24 N24        -9.0876   -1.0306   58.0639 N.2     1  <0>        -0.5600
     25 C25        -8.4221    1.8133   57.5648 C.ar    1  <0>        -0.0500
     26 C26        -7.7500    2.9724   57.2351 C.ar    1  <0>        -0.1300
     27 H27        -5.5388    4.3103   55.6971 H       1  <0>         0.0800
     28 H28        -6.8276    4.7277   54.5426 H       1  <0>         0.0700
     29 H29        -6.9411    5.2651   56.2358 H       1  <0>         0.0700
     30 H30        -7.2667    2.4200   53.9388 H       1  <0>         0.1300
     31 H31        -8.4550    0.3427   54.5075 H       1  <0>         0.1300
     32 H32       -12.4387   -2.4532   54.8254 H       1  <0>         0.1800
     33 H33       -11.4939   -4.4407   58.3701 H       1  <0>         0.4400
     34 H34        -8.5323   -1.8076   61.8624 H       1  <0>         0.1400
     35 H35        -8.7568   -0.7039   60.4841 H       1  <0>         0.1400
     36 H36        -8.8944    0.3083   63.2675 H       1  <0>         0.0800
     37 H37        -9.2142    1.2984   61.8162 H       1  <0>         0.0800
     38 H38        -9.6628    2.1845   64.4154 H       1  <0>         0.0900
     39 H39       -10.5618    2.8023   62.9908 H       1  <0>         0.0800
     40 H40       -11.3880    0.5892   64.9533 H       1  <0>         0.0800
     41 H41       -12.3760    1.9513   64.3264 H       1  <0>         0.0900
     42 H42       -12.5377    0.9812   62.1323 H       1  <0>         0.0800
     43 H43       -12.6082   -0.4808   63.1630 H       1  <0>         0.0800
     44 H44        -8.7450    1.6457   58.5818 H       1  <0>         0.1400
     45 H45        -7.5503    3.7140   57.9943 H       1  <0>         0.1300
@<TRIPOS>BOND
     1     1     2    1
     2     1    27    1
     3     1    28    1
     4     1    29    1
     5     2    26   ar
     6     2     3   ar
     7     3     4   ar
     8     3    30    1
     9     4     5   ar
    10     4    31    1
    11     5     6    1
    12     5    25   ar
    13     6    24    1
    14     6     7    2
    15     7     8    1
    16     8    13    1
    17     8     9    2
    18     9    10    1
    19     9    32    1
    20    10    11    2
    21    10    12   am
    22    12    13    1
    23    12    33    1
    24    13    14    1
    25    14    15    1
    26    14    24    2
    27    15    16    1
    28    16    17    1
    29    16    34    1
    30    16    35    1
    31    17    18    2
    32    17    19   am
    33    19    23    1
    34    19    20    1
    35    20    21    1
    36    20    36    1
    37    20    37    1
    38    21    22    1
    39    21    38    1
    40    21    39    1
    41    22    23    1
    42    22    40    1
    43    22    41    1
    44    23    42    1
    45    23    43    1
    46    25    26   ar
    47    25    44    1
    48    26    45    1
@<TRIPOS>SUBSTRUCTURE
     1 <0>         1 TEMP              0 ****  ****    0 ROOT


##########                                Name:    ZINC000821177065
##########                DOCK_Rotatable_Bonds:                  10
##########                         Heavy_Atoms:                  25
##########                    Molecular_Weight:             341.413
##########                DOCK_Rotatable_Bonds:                  10
##########                       Formal_Charge:          0.00999917
##########                     HBond_Acceptors:                   7
##########                        HBond_Donors:                   3
##########                         Heavy_Atoms:                  25
##########                          Grid_Score:          -33.298771
##########                     Grid_vdw_energy:          -32.703579
##########                      Grid_es_energy:           -0.595190
##########           Internal_energy_repulsive:           18.724985

@<TRIPOS>MOLECULE
ZINC000821177065
 48 51 1 0 0
SMALL
USER_CHARGES


@<TRIPOS>ATOM
      1 O1        -11.2173   -0.6210   54.2101 O.2     1  ZINC000821177065   -0.5600
      2 C2        -10.7107   -1.1811   53.2572 C.2     1  ZINC000821177065    0.7100
      3 N3        -10.0489   -0.4639   52.3276 N.am    1  ZINC000821177065   -0.7300
      4 C4         -9.9450    0.9912   52.4622 C.3     1  ZINC000821177065    0.1200
      5 C5         -8.5233    1.3639   52.8873 C.3     1  ZINC000821177065    0.1900
      6 O6         -7.6036    0.3995   52.3716 O.3     1  ZINC000821177065   -0.5400
      7 C7         -8.1728    2.7479   52.3374 C.3     1  ZINC000821177065   -0.1500
      8 C8         -6.7109    3.0137   51.9727 C.3     1  ZINC000821177065   -0.1600
      9 C9         -7.7553    2.8393   50.8682 C.3     1  ZINC000821177065   -0.1700
     10 C10        -8.4369    1.3853   54.4148 C.3     1  ZINC000821177065   -0.1800
     11 C11        -7.6849    2.5489   55.0637 C.3     1  ZINC000821177065   -0.1900
     12 C12        -9.2109    2.4807   55.1509 C.3     1  ZINC000821177065   -0.1700
     13 N13       -10.8061   -2.5197   53.1334 N.am    1  ZINC000821177065   -0.6500
     14 C14       -11.4946   -3.2658   54.1003 C.2     1  ZINC000821177065    0.3200
     15 N15       -11.1415   -3.4132   55.3554 N.2     1  ZINC000821177065   -0.3200
     16 N16       -12.0912   -4.2289   55.9835 N.pl3   1  ZINC000821177065   -0.3600
     17 C17       -12.0754   -4.6432   57.3886 C.3     1  ZINC000821177065    0.1900
     18 C18       -11.0516   -3.8319   58.1400 C.ar    1  ZINC000821177065    0.1100
     19 C19       -11.2514   -2.4762   58.3181 C.ar    1  ZINC000821177065   -0.1500
     20 C20       -10.3036   -1.7388   59.0114 C.ar    1  ZINC000821177065   -0.0700
     21 C21        -9.1856   -2.3958   59.5016 C.ar    1  ZINC000821177065   -0.1700
     22 C22        -9.0539   -3.7546   59.2846 C.ar    1  ZINC000821177065    0.1000
     23 N23        -9.9780   -4.4250   58.6249 N.ar    1  ZINC000821177065   -0.4700
     24 C24       -13.0239   -4.5658   55.0680 C.2     1  ZINC000821177065    0.0700
     25 C25       -12.6855   -3.9808   53.8966 C.2     1  ZINC000821177065   -0.2600
     26 H26        -9.6412   -0.9112   51.5695 H       1  ZINC000821177065    0.4000
     27 H27       -10.1734    1.4618   51.5058 H       1  ZINC000821177065    0.0700
     28 H28       -10.6522    1.3378   53.2157 H       1  ZINC000821177065    0.0800
     29 H29        -7.7752   -0.5051   52.6672 H       1  ZINC000821177065    0.3800
     30 H30        -8.7478    3.5771   52.7497 H       1  ZINC000821177065    0.1100
     31 H31        -6.3237    4.0179   52.1452 H       1  ZINC000821177065    0.0900
     32 H32        -5.9988    2.2026   52.1246 H       1  ZINC000821177065    0.1100
     33 H33        -7.7303    1.9135   50.2936 H       1  ZINC000821177065    0.1000
     34 H34        -8.0552    3.7288   50.3142 H       1  ZINC000821177065    0.0900
     35 H35        -8.3661    0.4094   54.8953 H       1  ZINC000821177065    0.1100
     36 H36        -7.1190    2.3389   55.9713 H       1  ZINC000821177065    0.1000
     37 H37        -7.2517    3.2995   54.4025 H       1  ZINC000821177065    0.1100
     38 H38        -9.7816    3.1862   54.5471 H       1  ZINC000821177065    0.0900
     39 H39        -9.6490    2.2257   56.1159 H       1  ZINC000821177065    0.1000
     40 H40       -10.3985   -2.9670   52.3752 H       1  ZINC000821177065    0.4100
     41 H41       -13.0602   -4.4809   57.8265 H       1  ZINC000821177065    0.1000
     42 H42       -11.8191   -5.7008   57.4527 H       1  ZINC000821177065    0.1200
     43 H43       -12.1345   -1.9969   57.9218 H       1  ZINC000821177065    0.1400
     44 H44       -10.4330   -0.6776   59.1655 H       1  ZINC000821177065    0.1400
     45 H45        -8.4271   -1.8530   60.0459 H       1  ZINC000821177065    0.1400
     46 H46        -8.1857   -4.2738   59.6628 H       1  ZINC000821177065    0.1600
     47 H47       -13.8893   -5.1882   55.2413 H       1  ZINC000821177065    0.1800
     48 H48       -13.2307   -4.0565   52.9673 H       1  ZINC000821177065    0.1700
@<TRIPOS>BOND
     1     1     2    2
     2     2     3   am
     3     2    13   am
     4     3     4    1
     5     3    26    1
     6     4     5    1
     7     4    27    1
     8     4    28    1
     9     5     6    1
    10     5     7    1
    11     5    10    1
    12     6    29    1
    13     7     9    1
    14     7     8    1
    15     7    30    1
    16     8     9    1
    17     8    31    1
    18     8    32    1
    19     9    33    1
    20     9    34    1
    21    10    12    1
    22    10    11    1
    23    10    35    1
    24    11    12    1
    25    11    36    1
    26    11    37    1
    27    12    38    1
    28    12    39    1
    29    13    14    1
    30    13    40    1
    31    14    25    1
    32    14    15    2
    33    15    16    1
    34    16    17    1
    35    16    24    1
    36    17    18    1
    37    17    41    1
    38    17    42    1
    39    18    23   ar
    40    18    19   ar
    41    19    20   ar
    42    19    43    1
    43    20    21   ar
    44    20    44    1
    45    21    22   ar
    46    21    45    1
    47    22    23   ar
    48    22    46    1
    49    24    25    2
    50    24    47    1
    51    25    48    1
@<TRIPOS>SUBSTRUCTURE
     1 ZINC000821177065        1 TEMP              0 ****  ****    0 ROOT


##########                                Name:    ZINC000000992968
##########                DOCK_Rotatable_Bonds:                   8
##########                         Heavy_Atoms:                  27
##########                    Molecular_Weight:             384.772
##########                DOCK_Rotatable_Bonds:                   8
##########                       Formal_Charge:           0.0199999
##########                     HBond_Acceptors:                   7
##########                        HBond_Donors:                   0
##########                         Heavy_Atoms:                  27
##########                          Grid_Score:          -33.280437
##########                     Grid_vdw_energy:          -33.029560
##########                      Grid_es_energy:           -0.250878
##########           Internal_energy_repulsive:            5.324672

@<TRIPOS>MOLECULE
ZINC000000992968
 40 42 1 0 0
SMALL
USER_CHARGES


@<TRIPOS>ATOM
      1 O1         -8.7633   -0.0073   53.3402 O.2     1  ZINC000000992968   -0.4600
      2 C2         -9.6671    0.4807   52.6889 C.2     1  ZINC000000992968    0.5600
      3 O3        -10.6302   -0.3108   52.1722 O.3     1  ZINC000000992968   -0.2900
      4 C4        -11.1477   -1.2839   52.9638 C.ar    1  ZINC000000992968    0.1200
      5 C5        -11.0776   -2.6136   52.5630 C.ar    1  ZINC000000992968   -0.1300
      6 C6        -11.6013   -3.6041   53.3619 C.ar    1  ZINC000000992968   -0.0400
      7 C7        -12.2051   -3.2712   54.5806 C.ar    1  ZINC000000992968   -0.1600
      8 C8        -12.7653   -4.3246   55.4376 C.2     1  ZINC000000992968    0.4000
      9 O9        -13.3757   -5.2484   54.9426 O.2     1  ZINC000000992968   -0.4200
     10 C10       -12.5815   -4.2575   56.9319 C.3     1  ZINC000000992968    0.0200
     11 O11       -11.2845   -3.6791   57.2344 O.3     1  ZINC000000992968   -0.3300
     12 C12       -10.6762   -4.0971   58.3615 C.2     1  ZINC000000992968    0.5100
     13 O13       -10.3358   -5.2579   58.4732 O.2     1  ZINC000000992968   -0.5000
     14 C14       -10.4233   -3.1444   59.4609 C.ar    1  ZINC000000992968   -0.1300
     15 C15       -11.2771   -2.0565   59.6564 C.ar    1  ZINC000000992968   -0.0500
     16 C16       -11.0358   -1.1707   60.6851 C.ar    1  ZINC000000992968   -0.1200
     17 C17        -9.9491   -1.3577   61.5235 C.ar    1  ZINC000000992968    0.0000
     18 Cl18       -9.6517   -0.2378   62.8161 Cl      1  ZINC000000992968   -0.0500
     19 C19        -9.0989   -2.4351   61.3351 C.ar    1  ZINC000000992968   -0.1200
     20 C20        -9.3326   -3.3309   60.3132 C.ar    1  ZINC000000992968   -0.0400
     21 C21       -12.2727   -1.9308   54.9797 C.ar    1  ZINC000000992968   -0.0600
     22 C22       -11.7412   -0.9484   54.1759 C.ar    1  ZINC000000992968   -0.1200
     23 C23        -9.7135    1.9281   52.4703 C.2     1  ZINC000000992968   -0.0700
     24 C24        -8.8231    2.8429   52.9582 C.2     1  ZINC000000992968   -0.0900
     25 C25        -9.2490    4.1009   52.5058 C.2     1  ZINC000000992968   -0.2300
     26 C26       -10.3662    3.9024   51.7710 C.2     1  ZINC000000992968    0.0200
     27 O27       -10.6395    2.5917   51.7472 O.3     1  ZINC000000992968   -0.1500
     28 H28       -10.6117   -2.8694   51.6228 H       1  ZINC000000992968    0.1400
     29 H29       -11.5469   -4.6366   53.0494 H       1  ZINC000000992968    0.1500
     30 H30       -13.3658   -3.6382   57.3669 H       1  ZINC000000992968    0.1100
     31 H31       -12.6377   -5.2623   57.3503 H       1  ZINC000000992968    0.1100
     32 H32       -12.1242   -1.9093   59.0029 H       1  ZINC000000992968    0.1500
     33 H33       -11.6952   -0.3290   60.8372 H       1  ZINC000000992968    0.1500
     34 H34        -8.2536   -2.5758   61.9923 H       1  ZINC000000992968    0.1500
     35 H35        -8.6693   -4.1705   60.1676 H       1  ZINC000000992968    0.1500
     36 H36       -12.7377   -1.6688   55.9187 H       1  ZINC000000992968    0.1400
     37 H37       -11.7926    0.0857   54.4830 H       1  ZINC000000992968    0.1400
     38 H38        -7.9592    2.6375   53.5727 H       1  ZINC000000992968    0.1700
     39 H39        -8.7736    5.0495   52.7068 H       1  ZINC000000992968    0.1700
     40 H40       -10.9415    4.6738   51.2806 H       1  ZINC000000992968    0.2200
@<TRIPOS>BOND
     1     1     2    2
     2     2     3    1
     3     2    23    1
     4     3     4    1
     5     4    22   ar
     6     4     5   ar
     7     5     6   ar
     8     5    28    1
     9     6     7   ar
    10     6    29    1
    11     7     8    1
    12     7    21   ar
    13     8     9    2
    14     8    10    1
    15    10    11    1
    16    10    30    1
    17    10    31    1
    18    11    12    1
    19    12    13    2
    20    12    14    1
    21    14    20   ar
    22    14    15   ar
    23    15    16   ar
    24    15    32    1
    25    16    17   ar
    26    16    33    1
    27    17    18    1
    28    17    19   ar
    29    19    20   ar
    30    19    34    1
    31    20    35    1
    32    21    22   ar
    33    21    36    1
    34    22    37    1
    35    23    27    1
    36    23    24    2
    37    24    25    1
    38    24    38    1
    39    25    26    2
    40    25    39    1
    41    26    27    1
    42    26    40    1
@<TRIPOS>SUBSTRUCTURE
     1 ZINC000000992968        1 TEMP              0 ****  ****    0 ROOT


##########                                Name:    ZINC000774689801
##########                DOCK_Rotatable_Bonds:                   4
##########                         Heavy_Atoms:                  24
##########                    Molecular_Weight:             347.395
##########                DOCK_Rotatable_Bonds:                   4
##########                       Formal_Charge:         -0.00999961
##########                     HBond_Acceptors:                   8
##########                        HBond_Donors:                   1
##########                         Heavy_Atoms:                  24
##########                          Grid_Score:          -33.255302
##########                     Grid_vdw_energy:          -31.784845
##########                      Grid_es_energy:           -1.470457
##########           Internal_energy_repulsive:            5.314896

@<TRIPOS>MOLECULE
ZINC000774689801
 41 44 1 0 0
SMALL
USER_CHARGES


@<TRIPOS>ATOM
      1 C1        -11.5658   -0.3795   53.5417 C.3     1  ZINC000774689801   -0.1200
      2 C2        -10.5385    0.1818   54.4908 C.2     1  ZINC000774689801    0.0600
      3 C3         -9.8697    1.3172   54.2331 C.2     1  ZINC000774689801   -0.2800
      4 C4        -10.0459    2.1354   53.0315 C.2     1  ZINC000774689801    0.5500
      5 O5        -11.0907    2.7308   52.8490 O.2     1  ZINC000774689801   -0.4900
      6 O6         -9.0494    2.2289   52.1270 O.3     1  ZINC000774689801   -0.3400
      7 C7         -8.0731    1.1543   52.1085 C.3     1  ZINC000774689801    0.0900
      8 C8         -7.0185    1.4420   51.0379 C.3     1  ZINC000774689801   -0.1300
      9 H9         -7.4752    1.9240   50.1735 H       1  ZINC000774689801    0.1200
     10 C10        -5.8880    2.3250   51.6153 C.3     1  ZINC000774689801   -0.1300
     11 C11        -4.6441    1.7506   50.9018 C.3     1  ZINC000774689801    0.1000
     12 N12        -4.9911    0.3651   50.5643 N.am    1  ZINC000774689801   -0.7400
     13 C13        -6.3212    0.1645   50.6249 C.2     1  ZINC000774689801    0.5200
     14 O14        -6.8767   -0.8870   50.3868 O.2     1  ZINC000774689801   -0.5100
     15 S15        -8.7550    1.6839   55.5387 S.3     1  ZINC000774689801    0.3000
     16 C16        -9.2416    0.2431   56.4238 C.2     1  ZINC000774689801    0.1000
     17 C17       -10.2228   -0.4397   55.6975 C.2     1  ZINC000774689801   -0.2500
     18 C18       -10.7515   -1.6812   56.2941 C.2     1  ZINC000774689801    0.5700
     19 O19       -11.6070   -2.3315   55.7205 O.2     1  ZINC000774689801   -0.5000
     20 N20       -10.2655   -2.0825   57.4921 N.am    1  ZINC000774689801   -0.5500
     21 C21       -10.6316   -3.2683   58.2857 C.3     1  ZINC000774689801    0.0900
     22 C22        -9.4843   -3.4597   59.2990 C.3     1  ZINC000774689801   -0.1300
     23 C23        -8.9395   -2.0215   59.4345 C.3     1  ZINC000774689801   -0.0800
     24 C24        -9.3098   -1.3527   58.1212 C.2     1  ZINC000774689801    0.4200
     25 N25        -8.8363   -0.2486   57.6073 N.2     1  ZINC000774689801   -0.5100
     26 H26       -12.5466    0.0292   53.7848 H       1  ZINC000774689801    0.0800
     27 H27       -11.3025   -0.1083   52.5193 H       1  ZINC000774689801    0.1000
     28 H28       -11.5914   -1.4652   53.6345 H       1  ZINC000774689801    0.0800
     29 H29        -7.5912    1.0843   53.0836 H       1  ZINC000774689801    0.0900
     30 H30        -8.5733    0.2127   51.8819 H       1  ZINC000774689801    0.0800
     31 H31        -6.0389    3.3723   51.3537 H       1  ZINC000774689801    0.1000
     32 H32        -5.8097    2.2016   52.6954 H       1  ZINC000774689801    0.0900
     33 H33        -4.4336    2.3182   49.9953 H       1  ZINC000774689801    0.0800
     34 H34        -3.7828    1.7718   51.5695 H       1  ZINC000774689801    0.0800
     35 H35        -4.3452   -0.3185   50.3265 H       1  ZINC000774689801    0.4100
     36 H36       -11.5718   -3.0956   58.8094 H       1  ZINC000774689801    0.1000
     37 H37       -10.7141   -4.1428   57.6403 H       1  ZINC000774689801    0.1000
     38 H38        -9.8638   -3.8245   60.2535 H       1  ZINC000774689801    0.1100
     39 H39        -8.7216   -4.1299   58.9023 H       1  ZINC000774689801    0.0900
     40 H40        -9.4172   -1.5103   60.2703 H       1  ZINC000774689801    0.1200
     41 H41        -7.8572   -2.0347   59.5633 H       1  ZINC000774689801    0.1200
@<TRIPOS>BOND
     1     1     2    1
     2     1    26    1
     3     1    27    1
     4     1    28    1
     5     2    17    1
     6     2     3    2
     7     3     4    1
     8     3    15    1
     9     4     5    2
    10     4     6    1
    11     6     7    1
    12     7     8    1
    13     7    29    1
    14     7    30    1
    15     8     9    1
    16     8    13    1
    17     8    10    1
    18    10    11    1
    19    10    31    1
    20    10    32    1
    21    11    12    1
    22    11    33    1
    23    11    34    1
    24    12    13   am
    25    12    35    1
    26    13    14    2
    27    15    16    1
    28    16    25    1
    29    16    17    2
    30    17    18    1
    31    18    19    2
    32    18    20   am
    33    20    24    1
    34    20    21    1
    35    21    22    1
    36    21    36    1
    37    21    37    1
    38    22    23    1
    39    22    38    1
    40    22    39    1
    41    23    24    1
    42    23    40    1
    43    23    41    1
    44    24    25    2
@<TRIPOS>SUBSTRUCTURE
     1 ZINC000774689801        1 TEMP              0 ****  ****    0 ROOT


##########                                Name:    ZINC000538774026
##########                DOCK_Rotatable_Bonds:                  10
##########                         Heavy_Atoms:                  29
##########                    Molecular_Weight:             414.496
##########                DOCK_Rotatable_Bonds:                  10
##########                       Formal_Charge:            0.049999
##########                     HBond_Acceptors:                   9
##########                        HBond_Donors:                   2
##########                         Heavy_Atoms:                  29
##########                          Grid_Score:          -33.247643
##########                     Grid_vdw_energy:          -33.169945
##########                      Grid_es_energy:           -0.077699
##########           Internal_energy_repulsive:           23.728369

@<TRIPOS>MOLECULE
ZINC000538774026
 61 62 1 0 0
SMALL
USER_CHARGES


@<TRIPOS>ATOM
      1 C1         -3.1860    1.6270   49.5050 C.3     1  ZINC000538774026   -0.1500
      2 C2         -4.1585    1.2301   50.6176 C.3     1  ZINC000538774026   -0.1100
      3 C3         -3.9303    2.1247   51.8376 C.3     1  ZINC000538774026   -0.1400
      4 C4         -5.5962    1.3997   50.1226 C.3     1  ZINC000538774026    0.1400
      5 N5         -6.4907    0.5607   50.9240 N.pl3   1  ZINC000538774026   -0.3400
      6 N6         -6.6592   -0.8237   50.7939 N.2     1  ZINC000538774026   -0.2500
      7 C7         -7.5373   -1.2173   51.6803 C.2     1  ZINC000538774026    0.0500
      8 C8         -7.9615   -0.0967   52.4090 C.2     1  ZINC000538774026    0.0800
      9 N9         -8.9025   -0.0964   53.4569 N.am    1  ZINC000538774026   -0.6600
     10 C10       -10.1477   -0.5665   53.2446 C.2     1  ZINC000538774026    0.7100
     11 O11       -10.4581   -0.9924   52.1487 O.2     1  ZINC000538774026   -0.5700
     12 N12       -11.0487   -0.5647   54.2469 N.am    1  ZINC000538774026   -0.7300
     13 C13       -12.4027   -1.0740   54.0156 C.3     1  ZINC000538774026    0.1600
     14 C14       -12.4381   -2.5766   54.3021 C.3     1  ZINC000538774026   -0.1300
     15 C15       -12.0406   -2.8277   55.7581 C.3     1  ZINC000538774026   -0.1000
     16 C16       -13.0216   -2.1082   56.6859 C.3     1  ZINC000538774026   -0.0800
     17 C17       -12.6300   -2.3556   58.1200 C.2     1  ZINC000538774026    0.4700
     18 O18       -12.5212   -3.4870   58.5300 O.2     1  ZINC000538774026   -0.5000
     19 O19       -12.4021   -1.3191   58.9418 O.3     1  ZINC000538774026   -0.3500
     20 C20       -11.0698   -1.2077   59.5084 C.3     1  ZINC000538774026    0.1200
     21 C21       -11.0098   -1.9823   60.8265 C.3     1  ZINC000538774026   -0.1800
     22 C22       -10.0486   -1.7888   58.5284 C.3     1  ZINC000538774026   -0.1400
     23 C23       -10.7472    0.2653   59.7673 C.3     1  ZINC000538774026   -0.1800
     24 C24       -12.9861   -0.6058   56.3994 C.3     1  ZINC000538774026   -0.1100
     25 C25       -13.3837   -0.3546   54.9435 C.3     1  ZINC000538774026   -0.1300
     26 C26        -7.2995    0.9867   51.9290 C.2     1  ZINC000538774026   -0.0500
     27 C27        -7.4425    2.4055   52.4163 C.3     1  ZINC000538774026    0.3500
     28 F28        -8.5798    2.9834   51.8420 F       1  ZINC000538774026   -0.1900
     29 F29        -7.5704    2.4094   53.8094 F       1  ZINC000538774026   -0.1900
     30 H30        -2.1617    1.5063   49.8576 H       1  ZINC000538774026    0.0600
     31 H31        -3.3486    0.9897   48.6359 H       1  ZINC000538774026    0.0600
     32 H32        -3.3549    2.6679   49.2291 H       1  ZINC000538774026    0.0600
     33 H33        -3.9895    0.1892   50.8936 H       1  ZINC000538774026    0.0800
     34 H34        -4.0992    3.1656   51.5616 H       1  ZINC000538774026    0.0600
     35 H35        -4.6231    1.8420   52.6302 H       1  ZINC000538774026    0.0600
     36 H36        -2.9059    2.0040   52.1902 H       1  ZINC000538774026    0.0600
     37 H37        -5.8932    2.4439   50.2201 H       1  ZINC000538774026    0.1000
     38 H38        -5.6580    1.1005   49.0764 H       1  ZINC000538774026    0.1000
     39 H39        -7.8777   -2.2319   51.8258 H       1  ZINC000538774026    0.2100
     40 H40        -8.6546    0.2422   54.3314 H       1  ZINC000538774026    0.4100
     41 H41       -10.8007   -0.2261   55.1214 H       1  ZINC000538774026    0.4000
     42 H42       -12.6859   -0.8952   52.9784 H       1  ZINC000538774026    0.1000
     43 H43       -13.4455   -2.9556   54.1300 H       1  ZINC000538774026    0.0800
     44 H44       -11.7393   -3.0891   53.6411 H       1  ZINC000538774026    0.0800
     45 H45       -12.0659   -3.8981   55.9621 H       1  ZINC000538774026    0.0700
     46 H46       -11.0332   -2.4487   55.9302 H       1  ZINC000538774026    0.0700
     47 H47       -14.0290   -2.4873   56.5138 H       1  ZINC000538774026    0.1100
     48 H48       -11.2397   -3.0317   60.6420 H       1  ZINC000538774026    0.0600
     49 H49       -10.0097   -1.8987   61.2518 H       1  ZINC000538774026    0.0700
     50 H50       -11.7373   -1.5683   61.5246 H       1  ZINC000538774026    0.0800
     51 H51       -10.0914   -1.2371   57.5894 H       1  ZINC000538774026    0.0700
     52 H52        -9.0485   -1.7053   58.9538 H       1  ZINC000538774026    0.0800
     53 H53       -10.2785   -2.8383   58.3439 H       1  ZINC000538774026    0.0700
     54 H54       -11.4747    0.6793   60.4655 H       1  ZINC000538774026    0.0800
     55 H55        -9.7471    0.3489   60.1926 H       1  ZINC000538774026    0.0700
     56 H56       -10.7899    0.8171   58.8283 H       1  ZINC000538774026    0.0600
     57 H57       -13.6850   -0.0932   57.0605 H       1  ZINC000538774026    0.0800
     58 H58       -11.9787   -0.2268   56.5715 H       1  ZINC000538774026    0.0600
     59 H59       -13.3584    0.7158   54.7394 H       1  ZINC000538774026    0.0800
     60 H60       -14.3911   -0.7337   54.7714 H       1  ZINC000538774026    0.0900
     61 H61        -6.5602    2.9784   52.1307 H       1  ZINC000538774026    0.1300
@<TRIPOS>BOND
     1     1     2    1
     2     1    30    1
     3     1    31    1
     4     1    32    1
     5     2     3    1
     6     2     4    1
     7     2    33    1
     8     3    34    1
     9     3    35    1
    10     3    36    1
    11     4     5    1
    12     4    37    1
    13     4    38    1
    14     5    26    1
    15     5     6    1
    16     6     7    2
    17     7     8    1
    18     7    39    1
    19     8     9    1
    20     8    26    2
    21     9    10   am
    22     9    40    1
    23    10    11    2
    24    10    12   am
    25    12    13    1
    26    12    41    1
    27    13    25    1
    28    13    14    1
    29    13    42    1
    30    14    15    1
    31    14    43    1
    32    14    44    1
    33    15    16    1
    34    15    45    1
    35    15    46    1
    36    16    17    1
    37    16    24    1
    38    16    47    1
    39    17    18    2
    40    17    19    1
    41    19    20    1
    42    20    21    1
    43    20    22    1
    44    20    23    1
    45    21    48    1
    46    21    49    1
    47    21    50    1
    48    22    51    1
    49    22    52    1
    50    22    53    1
    51    23    54    1
    52    23    55    1
    53    23    56    1
    54    24    25    1
    55    24    57    1
    56    24    58    1
    57    25    59    1
    58    25    60    1
    59    26    27    1
    60    27    28    1
    61    27    29    1
    62    27    61    1
@<TRIPOS>SUBSTRUCTURE
     1 ZINC000538774026        1 TEMP              0 ****  ****    0 ROOT


##########                                Name:    ZINC000790735374
##########                DOCK_Rotatable_Bonds:                   5
##########                         Heavy_Atoms:                  25
##########                    Molecular_Weight:             353.445
##########                DOCK_Rotatable_Bonds:                   5
##########                       Formal_Charge:                   0
##########                     HBond_Acceptors:                   6
##########                        HBond_Donors:                   1
##########                         Heavy_Atoms:                  25
##########                          Grid_Score:          -33.230713
##########                     Grid_vdw_energy:          -33.805237
##########                      Grid_es_energy:            0.574523
##########           Internal_energy_repulsive:            8.956923

@<TRIPOS>MOLECULE
ZINC000790735374
 44 47 1 0 0
SMALL
USER_CHARGES


@<TRIPOS>ATOM
      1 O1         -7.9931    0.8326   54.8494 O.2     1  ZINC000790735374   -0.5100
      2 C2         -9.0890    0.6964   54.3481 C.2     1  ZINC000790735374    0.5000
      3 N3        -10.1277    0.2828   55.1007 N.am    1  ZINC000790735374   -0.7200
      4 C4         -9.9316   -0.0082   56.5231 C.3     1  ZINC000790735374    0.1400
      5 C5        -10.9112   -1.0992   56.9602 C.3     1  ZINC000790735374   -0.0300
      6 H6        -11.8147   -0.6350   57.3556 H       1  ZINC000790735374    0.1100
      7 S7        -11.3417   -2.1267   55.5296 S.3     1  ZINC000790735374   -0.2400
      8 C8        -12.1307   -3.5465   56.3520 C.3     1  ZINC000790735374   -0.0800
      9 C9        -11.0752   -4.2323   57.2067 C.3     1  ZINC000790735374   -0.0800
     10 C10       -10.3684   -3.3012   58.1502 C.ar    1  ZINC000790735374   -0.0700
     11 C11        -9.7564   -3.9329   59.2381 C.ar    1  ZINC000790735374   -0.1200
     12 C12        -9.0560   -3.2199   60.1825 C.ar    1  ZINC000790735374   -0.1100
     13 C13        -8.9486   -1.8472   60.0579 C.ar    1  ZINC000790735374   -0.1200
     14 C14        -9.5534   -1.2189   58.9933 C.ar    1  ZINC000790735374   -0.1100
     15 C15       -10.2716   -1.9422   58.0356 C.ar    1  ZINC000790735374   -0.0800
     16 C16        -9.2908    0.9959   52.8849 C.3     1  ZINC000790735374    0.0300
     17 H17       -10.3183    1.3029   52.6897 H       1  ZINC000790735374    0.1500
     18 C18        -8.2894    2.0694   52.3960 C.3     1  ZINC000790735374   -0.1400
     19 C19        -7.1491    1.2318   51.8492 C.2     1  ZINC000790735374    0.1200
     20 C20        -5.7889    1.7173   51.5425 C.ar    1  ZINC000790735374   -0.1000
     21 C21        -5.3664    2.9772   51.9831 C.ar    1  ZINC000790735374   -0.0400
     22 C22        -4.0816    3.3849   51.6695 C.ar    1  ZINC000790735374   -0.1700
     23 C23        -3.2638    2.5430   50.9379 C.ar    1  ZINC000790735374    0.1200
     24 N24        -3.6887    1.3605   50.5356 N.ar    1  ZINC000790735374   -0.4800
     25 C25        -4.9000    0.9253   50.8131 C.ar    1  ZINC000790735374    0.1400
     26 N26        -7.5722    0.0218   51.6981 N.2     1  ZINC000790735374   -0.2700
     27 O27        -8.9275   -0.1379   52.0713 O.3     1  ZINC000790735374   -0.1600
     28 H28       -11.0051    0.1778   54.7007 H       1  ZINC000790735374    0.4100
     29 H29        -8.9098   -0.3506   56.6864 H       1  ZINC000790735374    0.0800
     30 H30       -10.1097    0.8950   57.1066 H       1  ZINC000790735374    0.0900
     31 H31       -12.9490   -3.1998   56.9832 H       1  ZINC000790735374    0.0900
     32 H32       -12.5098   -4.2428   55.6040 H       1  ZINC000790735374    0.1100
     33 H33       -11.5549   -5.0200   57.7878 H       1  ZINC000790735374    0.0900
     34 H34       -10.3363   -4.6891   56.5484 H       1  ZINC000790735374    0.0900
     35 H35        -9.8359   -5.0053   59.3387 H       1  ZINC000790735374    0.1200
     36 H36        -8.5936   -3.7283   61.0155 H       1  ZINC000790735374    0.1300
     37 H37        -8.3964   -1.2743   60.7882 H       1  ZINC000790735374    0.1300
     38 H38        -9.4693   -0.1467   58.8945 H       1  ZINC000790735374    0.1300
     39 H39        -8.7315    2.6815   51.6099 H       1  ZINC000790735374    0.1200
     40 H40        -7.9508    2.6893   53.2262 H       1  ZINC000790735374    0.1100
     41 H41        -6.0263    3.6148   52.5527 H       1  ZINC000790735374    0.1500
     42 H42        -3.7215    4.3506   51.9923 H       1  ZINC000790735374    0.1500
     43 H43        -2.2608    2.8590   50.6915 H       1  ZINC000790735374    0.1600
     44 H44        -5.2115   -0.0490   50.4667 H       1  ZINC000790735374    0.1600
@<TRIPOS>BOND
     1     1     2    2
     2     2     3   am
     3     2    16    1
     4     3     4    1
     5     3    28    1
     6     4     5    1
     7     4    29    1
     8     4    30    1
     9     5     6    1
    10     5    15    1
    11     5     7    1
    12     7     8    1
    13     8     9    1
    14     8    31    1
    15     8    32    1
    16     9    10    1
    17     9    33    1
    18     9    34    1
    19    10    15   ar
    20    10    11   ar
    21    11    12   ar
    22    11    35    1
    23    12    13   ar
    24    12    36    1
    25    13    14   ar
    26    13    37    1
    27    14    15   ar
    28    14    38    1
    29    16    17    1
    30    16    27    1
    31    16    18    1
    32    18    19    1
    33    18    39    1
    34    18    40    1
    35    19    20    1
    36    19    26    2
    37    20    25   ar
    38    20    21   ar
    39    21    22   ar
    40    21    41    1
    41    22    23   ar
    42    22    42    1
    43    23    24   ar
    44    23    43    1
    45    24    25   ar
    46    25    44    1
    47    26    27    1
@<TRIPOS>SUBSTRUCTURE
     1 ZINC000790735374        1 TEMP              0 ****  ****    0 ROOT


##########                                Name:    ZINC000817655807
##########                DOCK_Rotatable_Bonds:                   3
##########                         Heavy_Atoms:                  24
##########                    Molecular_Weight:             352.774
##########                DOCK_Rotatable_Bonds:                   3
##########                       Formal_Charge:         3.35276e-07
##########                     HBond_Acceptors:                   8
##########                        HBond_Donors:                   0
##########                         Heavy_Atoms:                  24
##########                          Grid_Score:          -33.226089
##########                     Grid_vdw_energy:          -32.753246
##########                      Grid_es_energy:           -0.472845
##########           Internal_energy_repulsive:            3.438812

@<TRIPOS>MOLECULE
ZINC000817655807
 41 44 1 0 0
SMALL
USER_CHARGES


@<TRIPOS>ATOM
      1 C1          1.2042   -0.0228   44.1116 C.3     1  ZINC000817655807    0.1100
      2 N2          0.0086    0.5151   44.7656 N.am    1  ZINC000817655807   -0.6400
      3 C3         -0.0114    1.2611   46.0367 C.3     1  ZINC000817655807    0.1000
      4 C4         -1.4970    1.5733   46.2380 C.3     1  ZINC000817655807    0.0500
      5 C5         -2.0705    1.2208   47.6107 C.3     1  ZINC000817655807    0.1200
      6 N6         -1.7832    2.6253   47.9701 N.am    1  ZINC000817655807   -0.6500
      7 C7         -1.5630    3.2756   49.1298 C.2     1  ZINC000817655807    0.5500
      8 O8         -1.3476    4.4691   49.1243 O.2     1  ZINC000817655807   -0.5100
      9 C9         -1.5843    2.5198   50.4334 C.3     1  ZINC000817655807   -0.0900
     10 C10        -3.0001    2.4373   50.9432 C.ar    1  ZINC000817655807   -0.0600
     11 C11        -3.4725    3.3912   51.8246 C.ar    1  ZINC000817655807   -0.0900
     12 C12        -4.7709    3.3174   52.2962 C.ar    1  ZINC000817655807   -0.0300
     13 Cl13       -5.3609    4.5170   53.4037 Cl      1  ZINC000817655807   -0.0500
     14 C14        -5.6021    2.2854   51.8845 C.ar    1  ZINC000817655807    0.0600
     15 O15        -6.8748    2.2210   52.3631 O.3     1  ZINC000817655807   -0.2900
     16 C16        -7.7916    1.3891   51.6435 C.3     1  ZINC000817655807    0.0200
     17 C17        -7.0997    0.0503   51.3535 C.3     1  ZINC000817655807    0.0200
     18 O18        -5.9271    0.3111   50.5745 O.3     1  ZINC000817655807   -0.3000
     19 C19        -5.1272    1.3288   50.9953 C.ar    1  ZINC000817655807    0.0600
     20 C20        -3.8255    1.4109   50.5237 C.ar    1  ZINC000817655807   -0.0900
     21 C21        -1.8334    3.0316   46.5501 C.3     1  ZINC000817655807    0.1100
     22 O22        -2.1636    0.9910   45.0942 O.3     1  ZINC000817655807   -0.3000
     23 C23        -1.2466    0.4145   44.3026 C.2     1  ZINC000817655807    0.6400
     24 O24        -1.5279   -0.1531   43.2656 O.2     1  ZINC000817655807   -0.5100
     25 H25         0.9185   -0.5213   43.1853 H       1  ZINC000817655807    0.0900
     26 H26         1.8936    0.7915   43.8883 H       1  ZINC000817655807    0.0700
     27 H27         1.6900   -0.7387   44.7747 H       1  ZINC000817655807    0.0700
     28 H28         0.3654    0.6426   46.8514 H       1  ZINC000817655807    0.1000
     29 H29         0.5668    2.1811   45.9518 H       1  ZINC000817655807    0.1000
     30 H30        -3.1332    0.9790   47.5949 H       1  ZINC000817655807    0.1100
     31 H31        -1.4749    0.4943   48.1633 H       1  ZINC000817655807    0.1000
     32 H32        -1.1953    1.5138   50.2765 H       1  ZINC000817655807    0.1100
     33 H33        -0.9646    3.0390   51.1646 H       1  ZINC000817655807    0.1100
     34 H34        -2.8271    4.1953   52.1459 H       1  ZINC000817655807    0.1400
     35 H35        -8.6838    1.2189   52.2458 H       1  ZINC000817655807    0.1300
     36 H36        -8.0669    1.8712   50.7055 H       1  ZINC000817655807    0.0800
     37 H37        -6.8189   -0.4292   52.2913 H       1  ZINC000817655807    0.0800
     38 H38        -7.7746   -0.5990   50.7957 H       1  ZINC000817655807    0.1300
     39 H39        -3.4551    0.6697   49.8311 H       1  ZINC000817655807    0.1400
     40 H40        -1.0505    3.7346   46.2655 H       1  ZINC000817655807    0.1000
     41 H41        -2.8245    3.3365   46.2141 H       1  ZINC000817655807    0.1100
@<TRIPOS>BOND
     1     1     2    1
     2     1    25    1
     3     1    26    1
     4     1    27    1
     5     2    23   am
     6     2     3    1
     7     3     4    1
     8     3    28    1
     9     3    29    1
    10     4    21    1
    11     4     5    1
    12     4    22    1
    13     5     6    1
    14     5    30    1
    15     5    31    1
    16     6     7   am
    17     6    21    1
    18     7     8    2
    19     7     9    1
    20     9    10    1
    21     9    32    1
    22     9    33    1
    23    10    20   ar
    24    10    11   ar
    25    11    12   ar
    26    11    34    1
    27    12    13    1
    28    12    14   ar
    29    14    19   ar
    30    14    15    1
    31    15    16    1
    32    16    17    1
    33    16    35    1
    34    16    36    1
    35    17    18    1
    36    17    37    1
    37    17    38    1
    38    18    19    1
    39    19    20   ar
    40    20    39    1
    41    21    40    1
    42    21    41    1
    43    22    23    1
    44    23    24    2
@<TRIPOS>SUBSTRUCTURE
     1 ZINC000817655807        1 TEMP              0 ****  ****    0 ROOT


##########                                Name:    ZINC000963156778
##########                DOCK_Rotatable_Bonds:                   6
##########                         Heavy_Atoms:                  24
##########                    Molecular_Weight:             349.414
##########                DOCK_Rotatable_Bonds:                   6
##########                       Formal_Charge:         -0.00999984
##########                     HBond_Acceptors:                   9
##########                        HBond_Donors:                   2
##########                         Heavy_Atoms:                  24
##########                          Grid_Score:          -33.218884
##########                     Grid_vdw_energy:          -31.016317
##########                      Grid_es_energy:           -2.202567
##########           Internal_energy_repulsive:            8.541969

@<TRIPOS>MOLECULE
ZINC000963156778
 43 46 1 0 0
SMALL
USER_CHARGES


@<TRIPOS>ATOM
      1 C1        -14.7827   -2.9130   53.8082 C.3     1  ZINC000963156778   -0.0800
      2 C2        -13.3434   -2.9555   53.3633 C.2     1  ZINC000963156778    0.0300
      3 C3        -12.3309   -3.4153   54.1347 C.2     1  ZINC000963156778   -0.2600
      4 C4        -12.4091   -3.9603   55.5376 C.3     1  ZINC000963156778    0.1300
      5 N5        -11.2408   -3.5076   56.3046 N.3     1  ZINC000963156778   -0.5000
      6 C6        -11.3886   -3.8390   57.7451 C.3     1  ZINC000963156778    0.0600
      7 C7        -10.4234   -2.8746   58.4671 C.3     1  ZINC000963156778   -0.1700
      8 H8         -9.5762   -3.3105   58.9967 H       1  ZINC000963156778    0.1200
      9 C9        -10.2529   -1.6821   57.5036 C.3     1  ZINC000963156778   -0.1700
     10 H10        -9.2811   -1.2212   57.3267 H       1  ZINC000963156778    0.1200
     11 C11       -11.1296   -2.0264   56.2803 C.3     1  ZINC000963156778    0.0600
     12 C12       -10.9574   -1.5064   58.8958 C.3     1  ZINC000963156778    0.1200
     13 H13       -12.0377   -1.3619   58.8974 H       1  ZINC000963156778    0.1400
     14 N14       -10.2226   -0.7852   59.9381 N.am    1  ZINC000963156778   -0.7000
     15 C15       -10.8190    0.2189   60.6109 C.2     1  ZINC000963156778    0.5100
     16 O16       -11.9643    0.5244   60.3544 O.2     1  ZINC000963156778   -0.5000
     17 C17       -10.0625    0.9619   61.6818 C.3     1  ZINC000963156778   -0.1300
     18 C18       -10.1676    0.1982   63.0034 C.3     1  ZINC000963156778   -0.1100
     19 H19       -11.0855   -0.3890   63.0339 H       1  ZINC000963156778    0.1300
     20 C20       -10.1058    1.1709   64.1987 C.3     1  ZINC000963156778   -0.1600
     21 C21        -8.8673    0.7322   64.9492 C.2     1  ZINC000963156778    0.5300
     22 O22        -8.4470    1.2386   65.9673 O.2     1  ZINC000963156778   -0.4800
     23 N23        -8.3095   -0.3041   64.3110 N.am    1  ZINC000963156778   -0.6900
     24 C24        -8.9597   -0.6909   63.2023 C.2     1  ZINC000963156778    0.5200
     25 O25        -8.6289   -1.6043   62.4770 O.2     1  ZINC000963156778   -0.4500
     26 S26       -10.9335   -3.2358   53.1460 S.3     1  ZINC000963156778    0.4500
     27 N27       -11.6857   -2.6326   51.9131 N.2     1  ZINC000963156778   -0.2900
     28 N28       -12.9312   -2.5544   52.1781 N.2     1  ZINC000963156778   -0.2400
     29 H29       -15.2722   -3.8505   53.5447 H       1  ZINC000963156778    0.0900
     30 H30       -14.8251   -2.7719   54.8882 H       1  ZINC000963156778    0.0800
     31 H31       -15.2916   -2.0858   53.3134 H       1  ZINC000963156778    0.0800
     32 H32       -13.3198   -3.6012   56.0168 H       1  ZINC000963156778    0.1000
     33 H33       -12.4216   -5.0497   55.5039 H       1  ZINC000963156778    0.0700
     34 H34       -12.4140   -3.6659   58.0717 H       1  ZINC000963156778    0.0600
     35 H35       -11.0999   -4.8739   57.9286 H       1  ZINC000963156778    0.0800
     36 H36       -10.6457   -1.6965   55.3610 H       1  ZINC000963156778    0.1000
     37 H37       -12.1144   -1.5695   56.3778 H       1  ZINC000963156778    0.0500
     38 H38        -9.3070   -1.0304   60.1439 H       1  ZINC000963156778    0.4000
     39 H39        -9.0148    1.0472   61.3938 H       1  ZINC000963156778    0.1000
     40 H40       -10.4885    1.9579   61.8028 H       1  ZINC000963156778    0.1200
     41 H41       -10.0001    2.1988   63.8518 H       1  ZINC000963156778    0.1200
     42 H42       -10.9915    1.0656   64.8253 H       1  ZINC000963156778    0.1300
     43 H43        -7.5023   -0.7409   64.6246 H       1  ZINC000963156778    0.4200
@<TRIPOS>BOND
     1     1     2    1
     2     1    29    1
     3     1    30    1
     4     1    31    1
     5     2    28    1
     6     2     3    2
     7     3     4    1
     8     3    26    1
     9     4     5    1
    10     4    32    1
    11     4    33    1
    12     5    11    1
    13     5     6    1
    14     6     7    1
    15     6    34    1
    16     6    35    1
    17     7     8    1
    18     7    12    1
    19     7     9    1
    20     9    10    1
    21     9    11    1
    22     9    12    1
    23    11    36    1
    24    11    37    1
    25    12    13    1
    26    12    14    1
    27    14    15   am
    28    14    38    1
    29    15    16    2
    30    15    17    1
    31    17    18    1
    32    17    39    1
    33    17    40    1
    34    18    19    1
    35    18    24    1
    36    18    20    1
    37    20    21    1
    38    20    41    1
    39    20    42    1
    40    21    22    2
    41    21    23   am
    42    23    24   am
    43    23    43    1
    44    24    25    2
    45    26    27    1
    46    27    28    2
@<TRIPOS>SUBSTRUCTURE
     1 ZINC000963156778        1 TEMP              0 ****  ****    0 ROOT


##########                                Name:    ZINC000948289723
##########                DOCK_Rotatable_Bonds:                   6
##########                         Heavy_Atoms:                  24
##########                    Molecular_Weight:             331.415
##########                DOCK_Rotatable_Bonds:                   6
##########                       Formal_Charge:           0.0599999
##########                     HBond_Acceptors:                   6
##########                        HBond_Donors:                   1
##########                         Heavy_Atoms:                  24
##########                          Grid_Score:          -33.208908
##########                     Grid_vdw_energy:          -31.947149
##########                      Grid_es_energy:           -1.261757
##########           Internal_energy_repulsive:            7.702829

@<TRIPOS>MOLECULE
ZINC000948289723
 49 52 1 0 0
SMALL
USER_CHARGES


@<TRIPOS>ATOM
      1 C1         -1.4684    2.1752   45.6769 C.3     1  ZINC000948289723   -0.1400
      2 C2         -1.7348    1.3746   46.9533 C.3     1  ZINC000948289723   -0.1100
      3 C3         -0.8267    1.7704   48.1295 C.3     1  ZINC000948289723   -0.1100
      4 C4         -2.0630    1.6207   49.0319 C.3     1  ZINC000948289723   -0.1400
      5 C5         -2.1668    2.6840   50.0948 C.2     1  ZINC000948289723    0.5400
      6 O6         -1.2845    3.5071   50.2174 O.2     1  ZINC000948289723   -0.5300
      7 N7         -3.2400    2.7201   50.9092 N.am    1  ZINC000948289723   -0.6200
      8 C8         -3.4682    3.6979   51.9831 C.3     1  ZINC000948289723    0.1100
      9 C9         -4.8324    3.3655   52.6233 C.3     1  ZINC000948289723   -0.1100
     10 H10        -4.7012    2.7489   53.5125 H       1  ZINC000948289723    0.1000
     11 C11        -5.5975    4.6461   52.9630 C.3     1  ZINC000948289723   -0.1400
     12 C12        -5.5561    2.5693   51.5053 C.3     1  ZINC000948289723    0.1400
     13 H13        -6.0142    3.2422   50.7805 H       1  ZINC000948289723    0.1200
     14 N14        -6.5515    1.6556   52.0715 N.am    1  ZINC000948289723   -0.7100
     15 C15        -7.2285    0.8135   51.2660 C.2     1  ZINC000948289723    0.6100
     16 O16        -7.0121    0.8110   50.0696 O.2     1  ZINC000948289723   -0.5000
     17 C17        -8.2319   -0.1054   51.8359 C.2     1  ZINC000948289723   -0.0900
     18 C18        -9.0710    0.1431   52.8877 C.2     1  ZINC000948289723   -0.1400
     19 C19        -9.8131   -1.0518   53.0176 C.2     1  ZINC000948289723    0.0500
     20 C20       -10.8933   -1.3357   54.0295 C.3     1  ZINC000948289723   -0.0900
     21 C21       -12.3097   -0.8576   53.7037 C.3     1  ZINC000948289723   -0.1600
     22 C22       -11.9733   -2.3490   53.6445 C.3     1  ZINC000948289723   -0.1600
     23 N23        -9.3822   -1.8594   52.0928 N.2     1  ZINC000948289723   -0.3300
     24 O24        -8.5112   -1.3559   51.4225 O.3     1  ZINC000948289723    0.1200
     25 C25        -4.3827    1.7895   50.8665 C.3     1  ZINC000948289723    0.0900
     26 C26        -2.9121    1.9126   47.7835 C.3     1  ZINC000948289723   -0.1200
     27 H27        -1.2375    3.2081   45.9374 H       1  ZINC000948289723    0.0600
     28 H28        -0.6248    1.7377   45.1431 H       1  ZINC000948289723    0.0600
     29 H29        -2.3533    2.1500   45.0409 H       1  ZINC000948289723    0.0600
     30 H30        -1.7799    0.2998   46.7771 H       1  ZINC000948289723    0.0900
     31 H31        -0.0422    1.0433   48.3394 H       1  ZINC000948289723    0.0700
     32 H32        -0.4525    2.7923   48.0676 H       1  ZINC000948289723    0.1000
     33 H33        -2.1961    0.6134   49.4264 H       1  ZINC000948289723    0.1100
     34 H34        -2.6788    3.6186   52.7305 H       1  ZINC000948289723    0.0800
     35 H35        -3.4890    4.7058   51.5685 H       1  ZINC000948289723    0.0800
     36 H36        -5.7441    5.2331   52.0564 H       1  ZINC000948289723    0.0600
     37 H37        -6.5669    4.3880   53.3895 H       1  ZINC000948289723    0.0600
     38 H38        -5.0266    5.2297   53.6853 H       1  ZINC000948289723    0.0700
     39 H39        -6.7232    1.6567   53.0262 H       1  ZINC000948289723    0.4100
     40 H40        -9.1478    1.0426   53.4804 H       1  ZINC000948289723    0.1800
     41 H41       -10.5795   -1.3067   55.0729 H       1  ZINC000948289723    0.1300
     42 H42       -12.9280   -0.5137   54.5328 H       1  ZINC000948289723    0.1100
     43 H43       -12.4603   -0.3376   52.7576 H       1  ZINC000948289723    0.1000
     44 H44       -11.9023   -2.8102   52.6594 H       1  ZINC000948289723    0.1000
     45 H45       -12.3701   -2.9862   54.4347 H       1  ZINC000948289723    0.1100
     46 H46        -4.6206    1.5225   49.8368 H       1  ZINC000948289723    0.0900
     47 H47        -4.1593    0.8959   51.4492 H       1  ZINC000948289723    0.0800
     48 H48        -3.1081    2.9734   47.6270 H       1  ZINC000948289723    0.0900
     49 H49        -3.8112    1.3004   47.7141 H       1  ZINC000948289723    0.0800
@<TRIPOS>BOND
     1     1     2    1
     2     1    27    1
     3     1    28    1
     4     1    29    1
     5     2    26    1
     6     2     3    1
     7     2    30    1
     8     3     4    1
     9     3    31    1
    10     3    32    1
    11     4     5    1
    12     4    26    1
    13     4    33    1
    14     5     6    2
    15     5     7   am
    16     7    25    1
    17     7     8    1
    18     8     9    1
    19     8    34    1
    20     8    35    1
    21     9    10    1
    22     9    11    1
    23     9    12    1
    24    11    36    1
    25    11    37    1
    26    11    38    1
    27    12    13    1
    28    12    14    1
    29    12    25    1
    30    14    15   am
    31    14    39    1
    32    15    16    2
    33    15    17    1
    34    17    24    1
    35    17    18    2
    36    18    19    1
    37    18    40    1
    38    19    20    1
    39    19    23    2
    40    20    22    1
    41    20    21    1
    42    20    41    1
    43    21    22    1
    44    21    42    1
    45    21    43    1
    46    22    44    1
    47    22    45    1
    48    23    24    1
    49    25    46    1
    50    25    47    1
    51    26    48    1
    52    26    49    1
@<TRIPOS>SUBSTRUCTURE
     1 ZINC000948289723        1 TEMP              0 ****  ****    0 ROOT


##########                                Name:    ZINC000481838178
##########                DOCK_Rotatable_Bonds:                   6
##########                         Heavy_Atoms:                  29
##########                    Molecular_Weight:             408.524
##########                DOCK_Rotatable_Bonds:                   6
##########                       Formal_Charge:         -0.00999962
##########                     HBond_Acceptors:                   7
##########                        HBond_Donors:                   0
##########                         Heavy_Atoms:                  29
##########                          Grid_Score:          -33.203022
##########                     Grid_vdw_energy:          -34.384998
##########                      Grid_es_energy:            1.181975
##########           Internal_energy_repulsive:            8.044401

@<TRIPOS>MOLECULE
ZINC000481838178
 53 57 1 0 0
SMALL
USER_CHARGES


@<TRIPOS>ATOM
      1 O1         -9.0725   -3.7109   59.3668 O.2     1  ZINC000481838178   -0.5200
      2 C2         -9.5882   -2.8430   58.6946 C.2     1  ZINC000481838178    0.5500
      3 C3         -9.1146   -1.4172   58.8126 C.3     1  ZINC000481838178   -0.1500
      4 S4        -10.3236   -0.4560   59.7562 S.3     1  ZINC000481838178    0.1000
      5 C5         -9.6545   -0.6290   61.3769 C.2     1  ZINC000481838178    0.1600
      6 N6         -8.7437   -1.4973   61.7554 N.2     1  ZINC000481838178   -0.2800
      7 N7         -8.4829   -1.3508   63.0050 N.2     1  ZINC000481838178   -0.2500
      8 C8         -9.2118   -0.3771   63.5058 C.2     1  ZINC000481838178    0.2700
      9 C9         -9.2027    0.0956   64.8984 C.2     1  ZINC000481838178    0.0300
     10 C10        -8.5413   -0.4880   65.9375 C.2     1  ZINC000481838178   -0.1300
     11 C11        -8.8093    0.2930   67.0783 C.2     1  ZINC000481838178   -0.2100
     12 C12        -9.6111    1.3033   66.6869 C.2     1  ZINC000481838178   -0.0100
     13 O13        -9.8422    1.1847   65.3688 O.3     1  ZINC000481838178   -0.1700
     14 N14        -9.9821    0.1204   62.4750 N.pl3   1  ZINC000481838178   -0.4100
     15 C15       -10.9117    1.1673   62.5404 C.ar    1  ZINC000481838178    0.1000
     16 C16       -10.4773    2.4726   62.7272 C.ar    1  ZINC000481838178   -0.0800
     17 C17       -11.3958    3.5022   62.7914 C.ar    1  ZINC000481838178   -0.1100
     18 C18       -12.7468    3.2340   62.6695 C.ar    1  ZINC000481838178   -0.1000
     19 C19       -13.1825    1.9349   62.4833 C.ar    1  ZINC000481838178   -0.1100
     20 C20       -12.2685    0.9018   62.4126 C.ar    1  ZINC000481838178   -0.0900
     21 N21       -10.5811   -3.1545   57.8381 N.am    1  ZINC000481838178   -0.6200
     22 C22       -11.1523   -4.5108   57.6219 C.3     1  ZINC000481838178    0.1000
     23 C23       -12.5696   -4.2161   57.1164 C.3     1  ZINC000481838178   -0.1100
     24 H24       -13.2136   -3.8837   57.9306 H       1  ZINC000481838178    0.0900
     25 C25       -13.2368   -5.3159   56.3122 C.3     1  ZINC000481838178   -0.1100
     26 C26       -14.5823   -4.7603   55.8165 C.3     1  ZINC000481838178   -0.1200
     27 C27       -14.3972   -3.4941   54.9865 C.3     1  ZINC000481838178   -0.1200
     28 C28       -13.5863   -2.4315   55.7475 C.3     1  ZINC000481838178   -0.1000
     29 C29       -12.2615   -3.0500   56.1295 C.3     1  ZINC000481838178   -0.1100
     30 H30       -11.7692   -3.4531   55.2444 H       1  ZINC000481838178    0.0900
     31 C31       -11.2967   -2.2022   56.9529 C.3     1  ZINC000481838178    0.1200
     32 H32        -8.1529   -1.3950   59.3254 H       1  ZINC000481838178    0.1300
     33 H33        -9.0056   -0.9870   57.8171 H       1  ZINC000481838178    0.1300
     34 H34        -7.9303   -1.3775   65.8943 H       1  ZINC000481838178    0.1600
     35 H35        -8.4419    0.1157   68.0781 H       1  ZINC000481838178    0.1600
     36 H36        -9.9998    2.0821   67.3263 H       1  ZINC000481838178    0.2100
     37 H37        -9.4222    2.6827   62.8228 H       1  ZINC000481838178    0.1300
     38 H38       -11.0584    4.5178   62.9370 H       1  ZINC000481838178    0.1400
     39 H39       -13.4631    4.0406   62.7203 H       1  ZINC000481838178    0.1300
     40 H40       -14.2384    1.7284   62.3889 H       1  ZINC000481838178    0.1400
     41 H41       -12.6094   -0.1126   62.2672 H       1  ZINC000481838178    0.1300
     42 H42       -10.5805   -5.0539   56.8694 H       1  ZINC000481838178    0.0800
     43 H43       -11.1857   -5.0681   58.5580 H       1  ZINC000481838178    0.0800
     44 H44       -12.6107   -5.5866   55.4620 H       1  ZINC000481838178    0.0700
     45 H45       -13.4049   -6.1882   56.9437 H       1  ZINC000481838178    0.0700
     46 H46       -15.0762   -5.5166   55.2063 H       1  ZINC000481838178    0.0600
     47 H47       -15.2117   -4.5327   56.6769 H       1  ZINC000481838178    0.0600
     48 H48       -13.8750   -3.7468   54.0636 H       1  ZINC000481838178    0.0600
     49 H49       -15.3766   -3.0846   54.7389 H       1  ZINC000481838178    0.0700
     50 H50       -13.4206   -1.5632   55.1096 H       1  ZINC000481838178    0.0700
     51 H51       -14.1191   -2.1339   56.6507 H       1  ZINC000481838178    0.0700
     52 H52       -11.8478   -1.4669   57.5389 H       1  ZINC000481838178    0.0700
     53 H53       -10.5813   -1.7036   56.2988 H       1  ZINC000481838178    0.0700
@<TRIPOS>BOND
     1     1     2    2
     2     2     3    1
     3     2    21   am
     4     3     4    1
     5     3    32    1
     6     3    33    1
     7     4     5    1
     8     5    14    1
     9     5     6    2
    10     6     7    1
    11     7     8    2
    12     8     9    1
    13     8    14    1
    14     9    13    1
    15     9    10    2
    16    10    11    1
    17    10    34    1
    18    11    12    2
    19    11    35    1
    20    12    13    1
    21    12    36    1
    22    14    15    1
    23    15    20   ar
    24    15    16   ar
    25    16    17   ar
    26    16    37    1
    27    17    18   ar
    28    17    38    1
    29    18    19   ar
    30    18    39    1
    31    19    20   ar
    32    19    40    1
    33    20    41    1
    34    21    31    1
    35    21    22    1
    36    22    23    1
    37    22    42    1
    38    22    43    1
    39    23    24    1
    40    23    29    1
    41    23    25    1
    42    25    26    1
    43    25    44    1
    44    25    45    1
    45    26    27    1
    46    26    46    1
    47    26    47    1
    48    27    28    1
    49    27    48    1
    50    27    49    1
    51    28    29    1
    52    28    50    1
    53    28    51    1
    54    29    30    1
    55    29    31    1
    56    31    52    1
    57    31    53    1
@<TRIPOS>SUBSTRUCTURE
     1 ZINC000481838178        1 TEMP              0 ****  ****    0 ROOT


##########                                Name:    ZINC000417533280
##########                DOCK_Rotatable_Bonds:                   9
##########                         Heavy_Atoms:                  26
##########                    Molecular_Weight:             367.439
##########                DOCK_Rotatable_Bonds:                   9
##########                       Formal_Charge:         -0.00999999
##########                     HBond_Acceptors:                   7
##########                        HBond_Donors:                   2
##########                         Heavy_Atoms:                  26
##########                          Grid_Score:          -33.197075
##########                     Grid_vdw_energy:          -33.975788
##########                      Grid_es_energy:            0.778713
##########           Internal_energy_repulsive:           16.411787

@<TRIPOS>MOLECULE
ZINC000417533280
 53 54 1 0 0
SMALL
USER_CHARGES


@<TRIPOS>ATOM
      1 C1         -4.9699    1.9041   66.1292 C.3     1  ZINC000417533280   -0.1600
      2 C2         -5.8713    1.1603   67.1165 C.3     1  ZINC000417533280   -0.1200
      3 C3         -7.3354    1.4904   66.8191 C.3     1  ZINC000417533280   -0.1200
      4 C4         -7.9466    0.3760   65.9673 C.3     1  ZINC000417533280   -0.1300
      5 C5         -7.9197    0.7873   64.4939 C.3     1  ZINC000417533280    0.1200
      6 N6         -8.7052   -0.1661   63.7064 N.am    1  ZINC000417533280   -0.7300
      7 C7         -9.4316    0.2646   62.6561 C.2     1  ZINC000417533280    0.5200
      8 O8         -9.4339    1.4412   62.3620 O.2     1  ZINC000417533280   -0.5400
      9 C9        -10.2412   -0.7159   61.8470 C.3     1  ZINC000417533280   -0.1100
     10 C10       -10.9218    0.0178   60.6892 C.3     1  ZINC000417533280   -0.1300
     11 C11       -11.7712   -0.9751   59.8896 C.3     1  ZINC000417533280    0.1300
     12 N12       -10.9201   -2.0987   59.4749 N.am    1  ZINC000417533280   -0.6200
     13 C13       -10.8473   -2.4634   58.1794 C.2     1  ZINC000417533280    0.7100
     14 O14       -10.1394   -3.3950   57.8490 O.2     1  ZINC000417533280   -0.5600
     15 N15       -11.5593   -1.7953   57.2503 N.am    1  ZINC000417533280   -0.6800
     16 C16       -11.4836   -2.1742   55.9041 C.ar    1  ZINC000417533280    0.1900
     17 C17       -12.0884   -3.3488   55.4779 C.ar    1  ZINC000417533280   -0.1100
     18 C18       -12.0138   -3.7217   54.1494 C.ar    1  ZINC000417533280   -0.1100
     19 C19       -11.3363   -2.9254   53.2428 C.ar    1  ZINC000417533280    0.0500
     20 F20       -11.2650   -3.2918   51.9444 F       1  ZINC000417533280   -0.1300
     21 C21       -10.7311   -1.7512   53.6656 C.ar    1  ZINC000417533280    0.0900
     22 F22       -10.0702   -0.9748   52.7793 F       1  ZINC000417533280   -0.1200
     23 C23       -10.8086   -1.3726   54.9934 C.ar    1  ZINC000417533280   -0.1300
     24 C24       -10.1516   -0.0967   55.4535 C.3     1  ZINC000417533280   -0.1200
     25 C25       -10.1496   -2.8170   60.4992 C.3     1  ZINC000417533280    0.1100
     26 C26        -9.3184   -1.8033   61.2920 C.3     1  ZINC000417533280   -0.1200
     27 H27        -5.2126    1.5957   65.1122 H       1  ZINC000417533280    0.0500
     28 H28        -5.1281    2.9778   66.2306 H       1  ZINC000417533280    0.0500
     29 H29        -3.9270    1.6689   66.3411 H       1  ZINC000417533280    0.0500
     30 H30        -5.7132    0.0866   67.0151 H       1  ZINC000417533280    0.0600
     31 H31        -5.6287    1.4687   68.1335 H       1  ZINC000417533280    0.0600
     32 H32        -7.8862    1.5755   67.7558 H       1  ZINC000417533280    0.0700
     33 H33        -7.3920    2.4345   66.2772 H       1  ZINC000417533280    0.0700
     34 H34        -7.3706   -0.5398   66.0996 H       1  ZINC000417533280    0.0700
     35 H35        -8.9773    0.2051   66.2781 H       1  ZINC000417533280    0.0700
     36 H36        -8.3458    1.7848   64.3872 H       1  ZINC000417533280    0.0700
     37 H37        -6.8898    0.7920   64.1368 H       1  ZINC000417533280    0.0700
     38 H38        -8.7025   -1.1073   63.9409 H       1  ZINC000417533280    0.4000
     39 H39       -10.9993   -1.1728   62.4829 H       1  ZINC000417533280    0.1000
     40 H40       -11.5608    0.8074   61.0844 H       1  ZINC000417533280    0.0800
     41 H41       -10.1635    0.4541   60.0390 H       1  ZINC000417533280    0.0800
     42 H42       -12.5856   -1.3442   60.5130 H       1  ZINC000417533280    0.0700
     43 H43       -12.1786   -0.4805   59.0079 H       1  ZINC000417533280    0.1000
     44 H44       -12.1241   -1.0522   57.5140 H       1  ZINC000417533280    0.4100
     45 H45       -12.6170   -3.9713   56.1847 H       1  ZINC000417533280    0.1700
     46 H46       -12.4842   -4.6358   53.8185 H       1  ZINC000417533280    0.1500
     47 H47       -10.8589    0.7280   55.3664 H       1  ZINC000417533280    0.0800
     48 H48        -9.8423   -0.2019   56.4934 H       1  ZINC000417533280    0.0700
     49 H49        -9.2785    0.1064   54.8335 H       1  ZINC000417533280    0.0800
     50 H50       -10.8318   -3.3363   61.1723 H       1  ZINC000417533280    0.0800
     51 H51        -9.4871   -3.5375   60.0196 H       1  ZINC000417533280    0.0800
     52 H52        -8.5752   -1.3500   60.6360 H       1  ZINC000417533280    0.0800
     53 H53        -8.8163   -2.3100   62.1161 H       1  ZINC000417533280    0.0900
@<TRIPOS>BOND
     1     1     2    1
     2     1    27    1
     3     1    28    1
     4     1    29    1
     5     2     3    1
     6     2    30    1
     7     2    31    1
     8     3     4    1
     9     3    32    1
    10     3    33    1
    11     4     5    1
    12     4    34    1
    13     4    35    1
    14     5     6    1
    15     5    36    1
    16     5    37    1
    17     6     7   am
    18     6    38    1
    19     7     8    2
    20     7     9    1
    21     9    26    1
    22     9    10    1
    23     9    39    1
    24    10    11    1
    25    10    40    1
    26    10    41    1
    27    11    12    1
    28    11    42    1
    29    11    43    1
    30    12    13   am
    31    12    25    1
    32    13    14    2
    33    13    15   am
    34    15    16    1
    35    15    44    1
    36    16    23   ar
    37    16    17   ar
    38    17    18   ar
    39    17    45    1
    40    18    19   ar
    41    18    46    1
    42    19    20    1
    43    19    21   ar
    44    21    22    1
    45    21    23   ar
    46    23    24    1
    47    24    47    1
    48    24    48    1
    49    24    49    1
    50    25    26    1
    51    25    50    1
    52    25    51    1
    53    26    52    1
    54    26    53    1
@<TRIPOS>SUBSTRUCTURE
     1 ZINC000417533280        1 TEMP              0 ****  ****    0 ROOT


##########                                Name:    ZINC000459459628
##########                DOCK_Rotatable_Bonds:                   8
##########                         Heavy_Atoms:                  27
##########                    Molecular_Weight:             377.366
##########                DOCK_Rotatable_Bonds:                   8
##########                       Formal_Charge:         -0.00999984
##########                     HBond_Acceptors:                   8
##########                        HBond_Donors:                   1
##########                         Heavy_Atoms:                  27
##########                          Grid_Score:          -33.181721
##########                     Grid_vdw_energy:          -31.137533
##########                      Grid_es_energy:           -2.044187
##########           Internal_energy_repulsive:           14.813179

@<TRIPOS>MOLECULE
ZINC000459459628
 45 46 1 0 0
SMALL
USER_CHARGES


@<TRIPOS>ATOM
      1 C1         -9.4344   -0.4386   59.1378 C.3     1  ZINC000459459628   -0.1600
      2 C2        -10.2323   -1.4788   59.9267 C.3     1  ZINC000459459628    0.1600
      3 H3        -11.2987   -1.3052   59.7816 H       1  ZINC000459459628    0.1100
      4 C4         -9.8941   -1.3603   61.4142 C.3     1  ZINC000459459628   -0.0900
      5 C5        -10.6709   -0.2179   62.0164 C.ar    1  ZINC000459459628   -0.0500
      6 C6        -10.0017    0.8312   62.6184 C.ar    1  ZINC000459459628   -0.1200
      7 C7        -10.7130    1.8799   63.1714 C.ar    1  ZINC000459459628   -0.0900
      8 C8        -12.0939    1.8805   63.1228 C.ar    1  ZINC000459459628   -0.1600
      9 C9        -12.7654    0.8303   62.5196 C.ar    1  ZINC000459459628    0.1000
     10 F10       -14.1156    0.8297   62.4715 F       1  ZINC000459459628   -0.1400
     11 C11       -12.0520   -0.2167   61.9616 C.ar    1  ZINC000459459628   -0.1500
     12 N12        -9.8871   -2.8214   59.4529 N.am    1  ZINC000459459628   -0.6200
     13 C13        -8.8470   -3.5943   60.1361 C.3     1  ZINC000459459628    0.0700
     14 C14       -10.5264   -3.3452   58.3883 C.2     1  ZINC000459459628    0.7100
     15 O15       -10.2389   -4.4589   57.9940 O.2     1  ZINC000459459628   -0.5700
     16 N16       -11.4843   -2.6345   57.7608 N.am    1  ZINC000459459628   -0.6800
     17 C17       -12.1493   -3.1795   56.6534 C.ar    1  ZINC000459459628    0.1500
     18 C18       -11.6178   -3.0313   55.3856 C.ar    1  ZINC000459459628   -0.0400
     19 C19       -12.2837   -3.5765   54.2844 C.ar    1  ZINC000459459628   -0.0300
     20 C20       -11.7375   -3.4265   52.9693 C.1     1  ZINC000459459628    0.2600
     21 N21       -11.3043   -3.3075   51.9259 N.1     1  ZINC000459459628   -0.4100
     22 C22       -13.4831   -4.2685   54.4696 C.ar    1  ZINC000459459628   -0.0500
     23 C23       -14.0081   -4.4123   55.7363 C.ar    1  ZINC000459459628   -0.1700
     24 C24       -13.3451   -3.8766   56.8310 C.ar    1  ZINC000459459628    0.1100
     25 O25       -13.8667   -4.0212   58.0767 O.3     1  ZINC000459459628   -0.3200
     26 C26       -15.2773   -3.8394   58.2146 C.3     1  ZINC000459459628    0.4100
     27 F27       -15.5725   -3.4603   59.5285 F       1  ZINC000459459628   -0.1900
     28 F28       -15.7071   -2.8412   57.3335 F       1  ZINC000459459628   -0.1900
     29 H29        -8.3681   -0.6121   59.2830 H       1  ZINC000459459628    0.0600
     30 H30        -9.6753   -0.5231   58.0782 H       1  ZINC000459459628    0.0600
     31 H31        -9.6912    0.5603   59.4904 H       1  ZINC000459459628    0.0700
     32 H32       -10.1593   -2.2876   61.9221 H       1  ZINC000459459628    0.0800
     33 H33        -8.8264   -1.1748   61.5303 H       1  ZINC000459459628    0.0900
     34 H34        -8.9224    0.8313   62.6571 H       1  ZINC000459459628    0.1300
     35 H35       -10.1891    2.6988   63.6417 H       1  ZINC000459459628    0.1300
     36 H36       -12.6494    2.6995   63.5554 H       1  ZINC000459459628    0.1300
     37 H37       -12.5746   -1.0360   61.4905 H       1  ZINC000459459628    0.1300
     38 H38        -9.2988   -4.1889   60.9301 H       1  ZINC000459459628    0.0600
     39 H39        -8.3568   -4.2553   59.4213 H       1  ZINC000459459628    0.0700
     40 H40        -8.1116   -2.9139   60.5654 H       1  ZINC000459459628    0.0800
     41 H41       -11.7137   -1.7461   58.0753 H       1  ZINC000459459628    0.4100
     42 H42       -10.6905   -2.4953   55.2465 H       1  ZINC000459459628    0.1600
     43 H43       -13.9994   -4.6906   53.6202 H       1  ZINC000459459628    0.1400
     44 H44       -14.9358   -4.9471   55.8773 H       1  ZINC000459459628    0.1500
     45 H45       -15.7885   -4.7736   57.9823 H       1  ZINC000459459628    0.1900
@<TRIPOS>BOND
     1     1     2    1
     2     1    29    1
     3     1    30    1
     4     1    31    1
     5     2     3    1
     6     2     4    1
     7     2    12    1
     8     4     5    1
     9     4    32    1
    10     4    33    1
    11     5    11   ar
    12     5     6   ar
    13     6     7   ar
    14     6    34    1
    15     7     8   ar
    16     7    35    1
    17     8     9   ar
    18     8    36    1
    19     9    10    1
    20     9    11   ar
    21    11    37    1
    22    12    13    1
    23    12    14   am
    24    13    38    1
    25    13    39    1
    26    13    40    1
    27    14    15    2
    28    14    16   am
    29    16    17    1
    30    16    41    1
    31    17    24   ar
    32    17    18   ar
    33    18    19   ar
    34    18    42    1
    35    19    20    1
    36    19    22   ar
    37    20    21    3
    38    22    23   ar
    39    22    43    1
    40    23    24   ar
    41    23    44    1
    42    24    25    1
    43    25    26    1
    44    26    27    1
    45    26    28    1
    46    26    45    1
@<TRIPOS>SUBSTRUCTURE
     1 ZINC000459459628        1 TEMP              0 ****  ****    0 ROOT


##########                                Name:    ZINC001217683559
##########                DOCK_Rotatable_Bonds:                   3
##########                         Heavy_Atoms:                  25
##########                    Molecular_Weight:             397.234
##########                DOCK_Rotatable_Bonds:                   3
##########                       Formal_Charge:          0.00999987
##########                     HBond_Acceptors:                   7
##########                        HBond_Donors:                   0
##########                         Heavy_Atoms:                  25
##########                          Grid_Score:          -33.172779
##########                     Grid_vdw_energy:          -32.908314
##########                      Grid_es_energy:           -0.264465
##########           Internal_energy_repulsive:           31.661478

@<TRIPOS>MOLECULE
ZINC001217683559
 38 42 1 0 0
SMALL
USER_CHARGES


@<TRIPOS>ATOM
      1 Br1        -7.3610    1.0572   65.7379 Br      1  ZINC001217683559    0.0100
      2 C2         -9.0783    1.8409   65.6254 C.ar    1  ZINC001217683559   -0.1200
      3 C3         -9.4419    2.8637   66.4868 C.ar    1  ZINC001217683559   -0.0500
      4 C4        -10.7117    3.4087   66.3679 C.ar    1  ZINC001217683559   -0.1500
      5 C5        -11.5719    2.9198   65.4012 C.ar    1  ZINC001217683559    0.1200
      6 N6        -11.2010    1.9464   64.5954 N.ar    1  ZINC001217683559   -0.4400
      7 C7         -9.9942    1.4021   64.6713 C.ar    1  ZINC001217683559    0.2200
      8 C8         -9.6206    0.3066   63.7413 C.2     1  ZINC001217683559    0.2100
      9 N9         -8.4755   -0.3250   63.7085 N.2     1  ZINC001217683559   -0.3300
     10 O10        -8.4828   -1.1666   62.8354 O.3     1  ZINC001217683559    0.1000
     11 C11        -9.6668   -1.1588   62.2030 C.2     1  ZINC001217683559    0.2300
     12 C12       -10.0719   -2.0320   61.0822 C.2     1  ZINC001217683559   -0.0600
     13 C13       -11.3343   -1.9430   60.5673 C.2     1  ZINC001217683559    0.1800
     14 N14       -11.7143   -2.7408   59.5386 N.pl3   1  ZINC001217683559   -0.2900
     15 N15       -12.9122   -2.8725   58.8216 N.2     1  ZINC001217683559   -0.3300
     16 C16       -12.7221   -3.8086   57.9221 C.2     1  ZINC001217683559    0.2800
     17 C17       -13.7517   -4.2783   56.9271 C.3     1  ZINC001217683559   -0.0300
     18 C18       -13.4003   -3.9370   55.4693 C.3     1  ZINC001217683559   -0.1200
     19 C19       -13.9362   -5.3294   55.0966 C.3     1  ZINC001217683559   -0.1400
     20 C20       -13.5993   -5.7574   56.5348 C.3     1  ZINC001217683559   -0.1200
     21 N21       -11.4860   -4.2776   58.0212 N.2     1  ZINC001217683559   -0.5300
     22 C22       -10.8450   -3.6470   58.9981 C.2     1  ZINC001217683559    0.2900
     23 C23        -9.5375   -3.7588   59.5099 C.2     1  ZINC001217683559   -0.1000
     24 C24        -9.1512   -2.9576   60.5367 C.2     1  ZINC001217683559   -0.0200
     25 N25       -10.4019   -0.2250   62.7781 N.2     1  ZINC001217683559   -0.4300
     26 H26        -8.7522    3.2279   67.2338 H       1  ZINC001217683559    0.1600
     27 H27       -11.0261    4.2068   67.0242 H       1  ZINC001217683559    0.1500
     28 H28       -12.5614    3.3421   65.3061 H       1  ZINC001217683559    0.1800
     29 H29       -12.0341   -1.2329   60.9824 H       1  ZINC001217683559    0.1900
     30 H30       -14.7683   -4.0038   57.2083 H       1  ZINC001217683559    0.1200
     31 H31       -13.9902   -3.1177   55.0584 H       1  ZINC001217683559    0.0700
     32 H32       -12.3310   -3.8194   55.2941 H       1  ZINC001217683559    0.1000
     33 H33       -15.0036   -5.3417   54.8761 H       1  ZINC001217683559    0.0800
     34 H34       -13.3405   -5.8380   54.3388 H       1  ZINC001217683559    0.0800
     35 H35       -12.5843   -6.1376   56.6507 H       1  ZINC001217683559    0.0900
     36 H36       -14.3498   -6.4079   56.9839 H       1  ZINC001217683559    0.0700
     37 H37        -8.8465   -4.4731   59.0871 H       1  ZINC001217683559    0.1700
     38 H38        -8.1519   -3.0325   60.9392 H       1  ZINC001217683559    0.1700
@<TRIPOS>BOND
     1     1     2    1
     2     2     7   ar
     3     2     3   ar
     4     3     4   ar
     5     3    26    1
     6     4     5   ar
     7     4    27    1
     8     5     6   ar
     9     5    28    1
    10     6     7   ar
    11     7     8    1
    12     8    25    1
    13     8     9    2
    14     9    10    1
    15    10    11    1
    16    11    12    1
    17    11    25    2
    18    12    24    1
    19    12    13    2
    20    13    14    1
    21    13    29    1
    22    14    22    1
    23    14    15    1
    24    15    16    2
    25    16    17    1
    26    16    21    1
    27    17    20    1
    28    17    18    1
    29    17    30    1
    30    18    19    1
    31    18    31    1
    32    18    32    1
    33    19    20    1
    34    19    33    1
    35    19    34    1
    36    20    35    1
    37    20    36    1
    38    21    22    2
    39    22    23    1
    40    23    24    2
    41    23    37    1
    42    24    38    1
@<TRIPOS>SUBSTRUCTURE
     1 ZINC001217683559        1 TEMP              0 ****  ****    0 ROOT


##########                                Name:    ZINC001220212140
##########                DOCK_Rotatable_Bonds:                   6
##########                         Heavy_Atoms:                  28
##########                    Molecular_Weight:             379.459
##########                DOCK_Rotatable_Bonds:                   6
##########                       Formal_Charge:         -0.00999925
##########                     HBond_Acceptors:                   6
##########                        HBond_Donors:                   1
##########                         Heavy_Atoms:                  28
##########                          Grid_Score:          -33.104851
##########                     Grid_vdw_energy:          -32.918900
##########                      Grid_es_energy:           -0.185951
##########           Internal_energy_repulsive:           17.234118

@<TRIPOS>MOLECULE
ZINC001220212140
 53 56 1 0 0
SMALL
USER_CHARGES


@<TRIPOS>ATOM
      1 C1        -13.5449   -5.4842   56.6126 C.3     1  ZINC001220212140   -0.1700
      2 C2        -14.1991   -4.1013   56.5891 C.3     1  ZINC001220212140    0.0800
      3 H3        -14.9983   -4.0413   57.3278 H       1  ZINC001220212140    0.1200
      4 C4        -13.1468   -2.9931   56.8292 C.3     1  ZINC001220212140   -0.1100
      5 C5        -12.7494   -2.6256   55.4125 C.ar    1  ZINC001220212140   -0.1500
      6 C6        -11.6814   -1.9191   54.9073 C.ar    1  ZINC001220212140   -0.0700
      7 C7        -11.5586   -1.7350   53.5354 C.ar    1  ZINC001220212140    0.1400
      8 N8        -10.4732   -1.0171   53.0151 N.am    1  ZINC001220212140   -0.6800
      9 C9        -10.6395    0.2584   52.6130 C.2     1  ZINC001220212140    0.7200
     10 O10       -11.7312    0.7864   52.7016 O.2     1  ZINC001220212140   -0.5700
     11 N11        -9.5958    0.9488   52.1126 N.am    1  ZINC001220212140   -0.6300
     12 C12        -9.6367    2.3401   51.6389 C.3     1  ZINC001220212140    0.0900
     13 C13        -8.2096    2.7116   51.1845 C.3     1  ZINC001220212140   -0.1100
     14 C14        -7.3244    1.6958   51.9539 C.3     1  ZINC001220212140   -0.1300
     15 H15        -7.1331    2.0365   52.9715 H       1  ZINC001220212140    0.1200
     16 C16        -6.0325    1.4412   51.2208 C.2     1  ZINC001220212140    0.5300
     17 O17        -5.9243    0.4699   50.5024 O.2     1  ZINC001220212140   -0.5100
     18 N18        -4.9975    2.2925   51.3636 N.am    1  ZINC001220212140   -0.5700
     19 C19        -5.1283    3.4656   52.2313 C.3     1  ZINC001220212140    0.0700
     20 C20        -3.7982    2.0560   50.6829 C.ar    1  ZINC001220212140    0.1400
     21 C21        -3.8189    1.6848   49.3449 C.ar    1  ZINC001220212140   -0.1100
     22 C22        -2.6332    1.4520   48.6758 C.ar    1  ZINC001220212140   -0.1100
     23 C23        -1.4264    1.5878   49.3371 C.ar    1  ZINC001220212140   -0.1200
     24 C24        -1.4024    1.9569   50.6695 C.ar    1  ZINC001220212140   -0.1100
     25 C25        -2.5842    2.1975   51.3424 C.ar    1  ZINC001220212140   -0.1200
     26 C26        -8.2225    0.4363   51.9555 C.3     1  ZINC001220212140    0.1400
     27 C27       -12.5168   -2.2668   52.6834 C.ar    1  ZINC001220212140   -0.1100
     28 C28       -13.5872   -2.9709   53.1938 C.ar    1  ZINC001220212140   -0.1200
     29 C29       -13.7168   -3.1552   54.5678 C.ar    1  ZINC001220212140    0.0900
     30 O30       -14.6958   -3.7951   55.2752 O.3     1  ZINC001220212140   -0.3000
     31 H31       -12.7581   -5.5268   55.8594 H       1  ZINC001220212140    0.0600
     32 H32       -13.1151   -5.6661   57.5976 H       1  ZINC001220212140    0.0800
     33 H33       -14.2953   -6.2448   56.3975 H       1  ZINC001220212140    0.0700
     34 H34       -13.5898   -2.1401   57.3432 H       1  ZINC001220212140    0.0900
     35 H35       -12.2929   -3.3804   57.3851 H       1  ZINC001220212140    0.0900
     36 H36       -10.9397   -1.5085   55.5764 H       1  ZINC001220212140    0.1400
     37 H37        -9.6022   -1.4382   52.9445 H       1  ZINC001220212140    0.4100
     38 H38       -10.3271    2.4258   50.7996 H       1  ZINC001220212140    0.0700
     39 H39        -9.9511    2.9984   52.4489 H       1  ZINC001220212140    0.0700
     40 H40        -8.1010    2.5799   50.1079 H       1  ZINC001220212140    0.1000
     41 H41        -7.9659    3.7334   51.4755 H       1  ZINC001220212140    0.0900
     42 H42        -4.8173    3.2055   53.2431 H       1  ZINC001220212140    0.0700
     43 H43        -4.4974    4.2697   51.8528 H       1  ZINC001220212140    0.0800
     44 H44        -6.1675    3.7943   52.2439 H       1  ZINC001220212140    0.0800
     45 H45        -4.7612    1.5778   48.8281 H       1  ZINC001220212140    0.1200
     46 H46        -2.6488    1.1633   47.6352 H       1  ZINC001220212140    0.1300
     47 H47        -0.5007    1.4048   48.8118 H       1  ZINC001220212140    0.1300
     48 H48        -0.4581    2.0614   51.1832 H       1  ZINC001220212140    0.1300
     49 H49        -2.5648    2.4857   52.3830 H       1  ZINC001220212140    0.1200
     50 H50        -7.9597   -0.2159   52.7884 H       1  ZINC001220212140    0.0900
     51 H51        -8.1284   -0.0979   51.0101 H       1  ZINC001220212140    0.0700
     52 H52       -12.4238   -2.1281   51.6164 H       1  ZINC001220212140    0.1300
     53 H53       -14.3285   -3.3816   52.5242 H       1  ZINC001220212140    0.1300
@<TRIPOS>BOND
     1     1     2    1
     2     1    31    1
     3     1    32    1
     4     1    33    1
     5     2     3    1
     6     2    30    1
     7     2     4    1
     8     4     5    1
     9     4    34    1
    10     4    35    1
    11     5    29   ar
    12     5     6   ar
    13     6     7   ar
    14     6    36    1
    15     7     8    1
    16     7    27   ar
    17     8     9   am
    18     8    37    1
    19     9    10    2
    20     9    11   am
    21    11    26    1
    22    11    12    1
    23    12    13    1
    24    12    38    1
    25    12    39    1
    26    13    14    1
    27    13    40    1
    28    13    41    1
    29    14    15    1
    30    14    16    1
    31    14    26    1
    32    16    17    2
    33    16    18   am
    34    18    19    1
    35    18    20    1
    36    19    42    1
    37    19    43    1
    38    19    44    1
    39    20    25   ar
    40    20    21   ar
    41    21    22   ar
    42    21    45    1
    43    22    23   ar
    44    22    46    1
    45    23    24   ar
    46    23    47    1
    47    24    25   ar
    48    24    48    1
    49    25    49    1
    50    26    50    1
    51    26    51    1
    52    27    28   ar
    53    27    52    1
    54    28    29   ar
    55    28    53    1
    56    29    30    1
@<TRIPOS>SUBSTRUCTURE
     1 ZINC001220212140        1 TEMP              0 ****  ****    0 ROOT


##########                                Name:    ZINC000892389374
##########                DOCK_Rotatable_Bonds:                   6
##########                         Heavy_Atoms:                  25
##########                    Molecular_Weight:             371.383
##########                DOCK_Rotatable_Bonds:                   6
##########                       Formal_Charge:          -0.0199998
##########                     HBond_Acceptors:                   9
##########                        HBond_Donors:                   1
##########                         Heavy_Atoms:                  25
##########                          Grid_Score:          -33.100235
##########                     Grid_vdw_energy:          -32.956696
##########                      Grid_es_energy:           -0.143541
##########           Internal_energy_repulsive:            8.264612

@<TRIPOS>MOLECULE
ZINC000892389374
 41 43 1 0 0
SMALL
USER_CHARGES


@<TRIPOS>ATOM
      1 C1         -3.5798    3.4201   52.8759 C.3     1  ZINC000892389374   -0.1000
      2 C2         -3.0686    2.9861   51.5263 C.ar    1  ZINC000892389374   -0.1800
      3 C3         -1.9277    3.5624   51.0026 C.ar    1  ZINC000892389374   -0.0400
      4 C4         -1.4556    3.1669   49.7657 C.ar    1  ZINC000892389374   -0.2100
      5 C5         -2.1275    2.1884   49.0444 C.ar    1  ZINC000892389374    0.2200
      6 N6         -1.6485    1.7886   47.7917 N.am    1  ZINC000892389374   -0.5700
      7 C7         -0.9831    0.5098   47.4986 C.3     1  ZINC000892389374    0.0600
      8 C8         -0.6713    0.5952   45.9920 C.3     1  ZINC000892389374    0.0400
      9 O9         -1.1882    1.8993   45.5982 O.3     1  ZINC000892389374   -0.3200
     10 C10        -1.7264    2.5057   46.6624 C.2     1  ZINC000892389374    0.6400
     11 O11        -2.2318    3.6096   46.6114 O.2     1  ZINC000892389374   -0.5000
     12 C12        -3.2738    1.6072   49.5673 C.ar    1  ZINC000892389374   -0.2300
     13 C13        -3.7424    2.0023   50.8122 C.ar    1  ZINC000892389374    0.2400
     14 N14        -4.8960    1.4200   51.3422 N.pl3   1  ZINC000892389374   -0.7400
     15 C15        -6.0227    1.0957   50.4638 C.3     1  ZINC000892389374    0.2000
     16 C16        -7.1202    0.4522   51.2713 C.2     1  ZINC000892389374   -0.2400
     17 C17        -7.4867   -0.8319   51.2173 C.2     1  ZINC000892389374    0.0600
     18 N18        -8.4773   -1.1521   52.0251 N.2     1  ZINC000892389374   -0.4500
     19 C19        -8.9671   -0.2095   52.7577 C.2     1  ZINC000892389374    0.0200
     20 C20       -10.0980   -0.3791   53.7391 C.3     1  ZINC000892389374   -0.0900
     21 C21       -11.0774   -1.4298   53.2120 C.3     1  ZINC000892389374    0.4600
     22 F22       -11.5091   -1.0645   51.9324 F       1  ZINC000892389374   -0.1800
     23 F23       -10.4394   -2.6733   53.1516 F       1  ZINC000892389374   -0.1800
     24 F24       -12.1793   -1.5121   54.0700 F       1  ZINC000892389374   -0.1700
     25 S25        -8.1422    1.2580   52.4591 S.3     1  ZINC000892389374    0.1900
     26 H26        -3.1266    2.8030   53.6517 H       1  ZINC000892389374    0.0700
     27 H27        -3.3192    4.4650   53.0444 H       1  ZINC000892389374    0.0700
     28 H28        -4.6634    3.3062   52.9078 H       1  ZINC000892389374    0.0600
     29 H29        -1.4038    4.3240   51.5610 H       1  ZINC000892389374    0.1300
     30 H30        -0.5632    3.6195   49.3590 H       1  ZINC000892389374    0.1200
     31 H31        -0.0629    0.4162   48.0753 H       1  ZINC000892389374    0.1000
     32 H32        -1.6520   -0.3257   47.7045 H       1  ZINC000892389374    0.1000
     33 H33         0.4038    0.5427   45.8207 H       1  ZINC000892389374    0.1100
     34 H34        -1.1848   -0.1989   45.4500 H       1  ZINC000892389374    0.1100
     35 H35        -3.7982    0.8464   49.0081 H       1  ZINC000892389374    0.1600
     36 H36        -4.9512    1.2303   52.2919 H       1  ZINC000892389374    0.4000
     37 H37        -6.3985    2.0090   50.0027 H       1  ZINC000892389374    0.0900
     38 H38        -5.6912    0.4064   49.6871 H       1  ZINC000892389374    0.0800
     39 H39        -7.0099   -1.5485   50.5649 H       1  ZINC000892389374    0.1800
     40 H40        -9.6994   -0.7039   54.7002 H       1  ZINC000892389374    0.1300
     41 H41       -10.6169    0.5713   53.8635 H       1  ZINC000892389374    0.1400
@<TRIPOS>BOND
     1     1     2    1
     2     1    26    1
     3     1    27    1
     4     1    28    1
     5     2    13   ar
     6     2     3   ar
     7     3     4   ar
     8     3    29    1
     9     4     5   ar
    10     4    30    1
    11     5     6    1
    12     5    12   ar
    13     6    10   am
    14     6     7    1
    15     7     8    1
    16     7    31    1
    17     7    32    1
    18     8     9    1
    19     8    33    1
    20     8    34    1
    21     9    10    1
    22    10    11    2
    23    12    13   ar
    24    12    35    1
    25    13    14    1
    26    14    15    1
    27    14    36    1
    28    15    16    1
    29    15    37    1
    30    15    38    1
    31    16    25    1
    32    16    17    2
    33    17    18    1
    34    17    39    1
    35    18    19    2
    36    19    20    1
    37    19    25    1
    38    20    21    1
    39    20    40    1
    40    20    41    1
    41    21    22    1
    42    21    23    1
    43    21    24    1
@<TRIPOS>SUBSTRUCTURE
     1 ZINC000892389374        1 TEMP              0 ****  ****    0 ROOT


##########                                Name:    ZINC000938043669
##########                DOCK_Rotatable_Bonds:                   7
##########                         Heavy_Atoms:                  27
##########                    Molecular_Weight:             372.439
##########                DOCK_Rotatable_Bonds:                   7
##########                       Formal_Charge:           0.0499999
##########                     HBond_Acceptors:                   6
##########                        HBond_Donors:                   1
##########                         Heavy_Atoms:                  27
##########                          Grid_Score:          -33.051575
##########                     Grid_vdw_energy:          -32.429634
##########                      Grid_es_energy:           -0.621941
##########           Internal_energy_repulsive:           39.473583

@<TRIPOS>MOLECULE
ZINC000938043669
 52 55 1 0 0
SMALL
USER_CHARGES


@<TRIPOS>ATOM
      1 O1        -10.4259   -2.1579   51.6944 O.2     1  ZINC000938043669   -0.5000
      2 C2        -10.2240   -1.4310   52.6440 C.2     1  ZINC000938043669    0.5300
      3 C3         -9.2536   -0.2844   52.5224 C.3     1  ZINC000938043669    0.0500
      4 O4         -8.2144   -0.6351   51.6063 O.3     1  ZINC000938043669   -0.2800
      5 C5         -7.1913    0.2491   51.4656 C.ar    1  ZINC000938043669    0.0900
      6 C6         -6.0716   -0.0965   50.7251 C.ar    1  ZINC000938043669   -0.1800
      7 C7         -5.0328    0.8041   50.5827 C.ar    1  ZINC000938043669   -0.0900
      8 C8         -5.1087    2.0494   51.1778 C.ar    1  ZINC000938043669   -0.1300
      9 C9         -6.2238    2.3982   51.9178 C.ar    1  ZINC000938043669   -0.1100
     10 C10        -7.2686    1.5032   52.0589 C.ar    1  ZINC000938043669    0.0800
     11 F11        -8.3580    1.8437   52.7816 F       1  ZINC000938043669   -0.1300
     12 N12       -10.8717   -1.6450   53.8064 N.am    1  ZINC000938043669   -0.6200
     13 C13       -11.8412   -2.7204   54.0617 C.3     1  ZINC000938043669    0.1000
     14 C14       -12.2970   -2.5873   55.5300 C.3     1  ZINC000938043669   -0.1400
     15 C15       -11.1361   -1.7918   56.1836 C.3     1  ZINC000938043669    0.1300
     16 H16       -10.3139   -2.4535   56.4560 H       1  ZINC000938043669    0.1100
     17 N17       -11.6068   -1.0370   57.3476 N.am    1  ZINC000938043669   -0.7200
     18 C18       -10.8040   -0.8805   58.4188 C.2     1  ZINC000938043669    0.5200
     19 O19        -9.6913   -1.3632   58.4185 O.2     1  ZINC000938043669   -0.5200
     20 C20       -11.2887   -0.1056   59.6169 C.3     1  ZINC000938043669   -0.1000
     21 H21       -12.1522    0.4966   59.3347 H       1  ZINC000938043669    0.1000
     22 C22       -10.1701    0.8107   60.1181 C.3     1  ZINC000938043669   -0.1100
     23 C23        -9.8200    0.4481   61.5670 C.3     1  ZINC000938043669   -0.0600
     24 H24        -8.9893    1.0549   61.9273 H       1  ZINC000938043669    0.0800
     25 C25        -9.4643   -1.0307   61.6047 C.2     1  ZINC000938043669   -0.1800
     26 C26       -10.4371   -1.8276   61.1689 C.2     1  ZINC000938043669   -0.1300
     27 C27       -11.6887   -1.0827   60.7299 C.3     1  ZINC000938043669   -0.0400
     28 H28       -12.4538   -1.7801   60.3885 H       1  ZINC000938043669    0.0900
     29 C29       -12.1912   -0.2678   61.9296 C.3     1  ZINC000938043669   -0.1200
     30 C30       -11.0683    0.6652   62.4335 C.3     1  ZINC000938043669   -0.1100
     31 C31       -10.7207   -0.8433   55.0344 C.3     1  ZINC000938043669    0.1000
     32 H32        -9.7780    0.5983   52.1562 H       1  ZINC000938043669    0.1000
     33 H33        -8.8198   -0.0702   53.4991 H       1  ZINC000938043669    0.1000
     34 H34        -6.0109   -1.0693   50.2598 H       1  ZINC000938043669    0.1400
     35 H35        -4.1604    0.5344   50.0060 H       1  ZINC000938043669    0.1300
     36 H36        -4.2956    2.7511   51.0649 H       1  ZINC000938043669    0.1400
     37 H37        -6.2804    3.3716   52.3822 H       1  ZINC000938043669    0.1500
     38 H38       -12.6979   -2.6128   53.3964 H       1  ZINC000938043669    0.0800
     39 H39       -11.3684   -3.6902   53.9068 H       1  ZINC000938043669    0.0800
     40 H40       -13.2312   -2.0293   55.5949 H       1  ZINC000938043669    0.0900
     41 H41       -12.4000   -3.5690   55.9924 H       1  ZINC000938043669    0.1000
     42 H42       -12.4962   -0.6498   57.3473 H       1  ZINC000938043669    0.4000
     43 H43        -9.2887    0.6850   59.4893 H       1  ZINC000938043669    0.0700
     44 H44       -10.5028    1.8477   60.0735 H       1  ZINC000938043669    0.0800
     45 H45        -8.5108   -1.3997   61.9529 H       1  ZINC000938043669    0.1200
     46 H46       -10.3461   -2.9031   61.1300 H       1  ZINC000938043669    0.1200
     47 H47       -13.0463    0.3360   61.6259 H       1  ZINC000938043669    0.0700
     48 H48       -12.4911   -0.9456   62.7289 H       1  ZINC000938043669    0.0700
     49 H49       -10.8347    0.4248   63.4707 H       1  ZINC000938043669    0.0700
     50 H50       -11.3999    1.7013   62.3670 H       1  ZINC000938043669    0.0700
     51 H51        -9.6854   -0.5263   55.1596 H       1  ZINC000938043669    0.0900
     52 H52       -11.3819    0.0226   54.9995 H       1  ZINC000938043669    0.0700
@<TRIPOS>BOND
     1     1     2    2
     2     2     3    1
     3     2    12   am
     4     3     4    1
     5     3    32    1
     6     3    33    1
     7     4     5    1
     8     5    10   ar
     9     5     6   ar
    10     6     7   ar
    11     6    34    1
    12     7     8   ar
    13     7    35    1
    14     8     9   ar
    15     8    36    1
    16     9    10   ar
    17     9    37    1
    18    10    11    1
    19    12    31    1
    20    12    13    1
    21    13    14    1
    22    13    38    1
    23    13    39    1
    24    14    15    1
    25    14    40    1
    26    14    41    1
    27    15    16    1
    28    15    17    1
    29    15    31    1
    30    17    18   am
    31    17    42    1
    32    18    19    2
    33    18    20    1
    34    20    21    1
    35    20    27    1
    36    20    22    1
    37    22    23    1
    38    22    43    1
    39    22    44    1
    40    23    24    1
    41    23    30    1
    42    23    25    1
    43    25    26    2
    44    25    45    1
    45    26    27    1
    46    26    46    1
    47    27    28    1
    48    27    29    1
    49    29    30    1
    50    29    47    1
    51    29    48    1
    52    30    49    1
    53    30    50    1
    54    31    51    1
    55    31    52    1
@<TRIPOS>SUBSTRUCTURE
     1 ZINC000938043669        1 TEMP              0 ****  ****    0 ROOT


##########                                Name:    ZINC000962730513
##########                DOCK_Rotatable_Bonds:                   6
##########                         Heavy_Atoms:                  24
##########                    Molecular_Weight:             342.465
##########                DOCK_Rotatable_Bonds:                   6
##########                       Formal_Charge:         -0.00999998
##########                     HBond_Acceptors:                   6
##########                        HBond_Donors:                   1
##########                         Heavy_Atoms:                  24
##########                          Grid_Score:          -32.994736
##########                     Grid_vdw_energy:          -31.211645
##########                      Grid_es_energy:           -1.783092
##########           Internal_energy_repulsive:           12.261107

@<TRIPOS>MOLECULE
ZINC000962730513
 46 49 1 0 0
SMALL
USER_CHARGES


@<TRIPOS>ATOM
      1 C1        -14.1832    2.7418   50.5913 C.3     1  ZINC000962730513   -0.1400
      2 C2        -13.7656    1.3282   51.0017 C.3     1  ZINC000962730513   -0.0800
      3 C3        -13.9810    0.3853   49.8460 C.2     1  ZINC000962730513   -0.0100
      4 C4        -14.1239   -0.9655   49.9952 C.2     1  ZINC000962730513   -0.2800
      5 C5        -14.0911   -1.6884   51.2700 C.2     1  ZINC000962730513    0.6000
      6 O6        -14.8661   -2.6053   51.4698 O.2     1  ZINC000962730513   -0.5200
      7 N7        -13.2026   -1.3377   52.2208 N.am    1  ZINC000962730513   -0.7000
      8 C8        -13.1710   -2.0591   53.4956 C.3     1  ZINC000962730513    0.1200
      9 H9        -14.0226   -1.8869   54.1537 H       1  ZINC000962730513    0.1400
     10 C10       -11.8051   -2.2728   54.1511 C.3     1  ZINC000962730513   -0.1700
     11 H11       -10.9168   -1.8332   53.6974 H       1  ZINC000962730513    0.1200
     12 C12       -11.7631   -2.5686   55.6656 C.3     1  ZINC000962730513    0.0700
     13 N13       -11.9118   -4.0435   55.7634 N.3     1  ZINC000962730513   -0.5000
     14 C14       -12.3824   -4.4380   57.0979 C.3     1  ZINC000962730513    0.1100
     15 C15       -11.4848   -3.8330   58.1463 C.ar    1  ZINC000962730513    0.3200
     16 N16       -10.3668   -4.4522   58.4684 N.ar    1  ZINC000962730513   -0.5100
     17 C17        -9.5539   -3.9510   59.3845 C.ar    1  ZINC000962730513    0.1500
     18 C18        -9.8921   -2.7596   60.0065 C.ar    1  ZINC000962730513   -0.1900
     19 C19        -8.9943   -2.1543   61.0547 C.3     1  ZINC000962730513   -0.1100
     20 C20       -11.0758   -2.1379   59.6412 C.ar    1  ZINC000962730513    0.1500
     21 N21       -11.8360   -2.6961   58.7129 N.ar    1  ZINC000962730513   -0.5000
     22 C22       -12.9183   -4.3785   54.7233 C.3     1  ZINC000962730513    0.0700
     23 C23       -12.5474   -3.4562   53.4998 C.3     1  ZINC000962730513   -0.1700
     24 H24       -12.2151   -3.9429   52.5829 H       1  ZINC000962730513    0.1300
     25 S25       -14.3539   -1.6974   48.4132 S.3     1  ZINC000962730513    0.1900
     26 C26       -14.2485   -0.1785   47.6433 C.2     1  ZINC000962730513   -0.2200
     27 C27       -14.0590    0.7991   48.5375 C.2     1  ZINC000962730513   -0.1500
     28 H28       -13.5826    3.0658   49.7414 H       1  ZINC000962730513    0.0600
     29 H29       -15.2371    2.7429   50.3131 H       1  ZINC000962730513    0.0500
     30 H30       -14.0275    3.4238   51.4272 H       1  ZINC000962730513    0.0600
     31 H31       -12.7117    1.3272   51.2800 H       1  ZINC000962730513    0.1000
     32 H32       -14.3661    1.0043   51.8517 H       1  ZINC000962730513    0.0700
     33 H33       -12.5842   -0.6077   52.0611 H       1  ZINC000962730513    0.4000
     34 H34       -10.8088   -2.2540   56.0881 H       1  ZINC000962730513    0.0900
     35 H35       -12.5878   -2.0689   56.1736 H       1  ZINC000962730513    0.0500
     36 H36       -13.4023   -4.0820   57.2434 H       1  ZINC000962730513    0.1000
     37 H37       -12.3610   -5.5243   57.1842 H       1  ZINC000962730513    0.0700
     38 H38        -8.6395   -4.4636   59.6440 H       1  ZINC000962730513    0.1700
     39 H39        -8.2782   -1.4854   60.5773 H       1  ZINC000962730513    0.0800
     40 H40        -9.5966   -1.5923   61.7685 H       1  ZINC000962730513    0.0700
     41 H41        -8.4587   -2.9475   61.5763 H       1  ZINC000962730513    0.0700
     42 H42       -11.3718   -1.2086   60.1051 H       1  ZINC000962730513    0.1700
     43 H43       -12.8339   -5.4266   54.4362 H       1  ZINC000962730513    0.0800
     44 H44       -13.9239   -4.1620   55.0839 H       1  ZINC000962730513    0.0600
     45 H45       -14.3281   -0.0257   46.5772 H       1  ZINC000962730513    0.1700
     46 H46       -13.9661    1.8362   48.2511 H       1  ZINC000962730513    0.1500
@<TRIPOS>BOND
     1     1     2    1
     2     1    28    1
     3     1    29    1
     4     1    30    1
     5     2     3    1
     6     2    31    1
     7     2    32    1
     8     3    27    1
     9     3     4    2
    10     4     5    1
    11     4    25    1
    12     5     6    2
    13     5     7   am
    14     7     8    1
    15     7    33    1
    16     8     9    1
    17     8    23    1
    18     8    10    1
    19    10    11    1
    20    10    23    1
    21    10    12    1
    22    12    13    1
    23    12    34    1
    24    12    35    1
    25    13    14    1
    26    13    22    1
    27    14    15    1
    28    14    36    1
    29    14    37    1
    30    15    21   ar
    31    15    16   ar
    32    16    17   ar
    33    17    18   ar
    34    17    38    1
    35    18    19    1
    36    18    20   ar
    37    19    39    1
    38    19    40    1
    39    19    41    1
    40    20    21   ar
    41    20    42    1
    42    22    23    1
    43    22    43    1
    44    22    44    1
    45    23    24    1
    46    25    26    1
    47    26    27    2
    48    26    45    1
    49    27    46    1
@<TRIPOS>SUBSTRUCTURE
     1 ZINC000962730513        1 TEMP              0 ****  ****    0 ROOT


##########                                Name:    ZINC000281257088
##########                DOCK_Rotatable_Bonds:                   8
##########                         Heavy_Atoms:                  27
##########                    Molecular_Weight:             395.541
##########                DOCK_Rotatable_Bonds:                   8
##########                       Formal_Charge:          -0.0200005
##########                     HBond_Acceptors:                   7
##########                        HBond_Donors:                   1
##########                         Heavy_Atoms:                  27
##########                          Grid_Score:          -32.988903
##########                     Grid_vdw_energy:          -33.192589
##########                      Grid_es_energy:            0.203685
##########           Internal_energy_repulsive:           25.078056

@<TRIPOS>MOLECULE
ZINC000281257088
 57 58 1 0 0
SMALL
USER_CHARGES


@<TRIPOS>ATOM
      1 C1         -8.7642   -3.1043   59.9222 C.3     1  ZINC000281257088   -0.0700
      2 C2         -9.1982   -1.7242   60.3438 C.2     1  ZINC000281257088    0.1000
      3 N3         -9.2559   -1.2803   61.5732 N.2     1  ZINC000281257088   -0.3000
      4 N4         -9.7054    0.0460   61.5390 N.pl3   1  ZINC000281257088   -0.3700
      5 C5         -9.9119    0.9163   62.6993 C.3     1  ZINC000281257088    0.1500
      6 C6         -8.9295    0.5309   63.8071 C.3     1  ZINC000281257088   -0.6400
      7 S7         -9.4586    1.2803   65.3721 S.o2    1  ZINC000281257088    2.4300
      8 C8         -8.4593    0.3687   66.5808 C.3     1  ZINC000281257088   -0.6500
      9 O9         -9.0513    2.6417   65.3826 O.2     1  ZINC000281257088   -0.9300
     10 O10       -10.8273    0.9640   65.5856 O.2     1  ZINC000281257088   -0.9300
     11 C11        -9.9147    0.3804   60.2485 C.2     1  ZINC000281257088    0.0900
     12 C12       -10.4019    1.7144   59.7441 C.3     1  ZINC000281257088   -0.1000
     13 C13        -9.6033   -0.6947   59.4881 C.2     1  ZINC000281257088   -0.2300
     14 C14        -9.6867   -0.7719   57.9854 C.3     1  ZINC000281257088    0.1400
     15 N15       -11.0869   -0.9565   57.5815 N.3     1  ZINC000281257088   -0.6700
     16 C16       -11.2944   -2.2869   56.9942 C.3     1  ZINC000281257088    0.1400
     17 H17       -10.4541   -2.9322   57.2504 H       1  ZINC000281257088    0.0500
     18 C18       -11.3949   -2.1643   55.4955 C.ar    1  ZINC000281257088   -0.0800
     19 C19       -10.9840   -3.2086   54.6881 C.ar    1  ZINC000281257088   -0.0600
     20 C20       -11.0757   -3.0974   53.3136 C.ar    1  ZINC000281257088   -0.1600
     21 C21       -11.5797   -1.9398   52.7453 C.ar    1  ZINC000281257088    0.1000
     22 F22       -11.6703   -1.8302   51.4019 F       1  ZINC000281257088   -0.1400
     23 C23       -11.9914   -0.8948   53.5550 C.ar    1  ZINC000281257088   -0.1600
     24 C24       -11.9032   -1.0102   54.9293 C.ar    1  ZINC000281257088   -0.0900
     25 C25       -12.5879   -2.8911   57.5443 C.3     1  ZINC000281257088   -0.0600
     26 C26       -12.6045   -2.7594   59.0685 C.3     1  ZINC000281257088   -0.1400
     27 C27       -13.7887   -2.1484   56.9550 C.3     1  ZINC000281257088   -0.1400
     28 C28       -12.6639   -4.3700   57.1594 C.3     1  ZINC000281257088   -0.1500
     29 H29        -7.6874   -3.1107   59.7530 H       1  ZINC000281257088    0.0800
     30 H30        -9.0130   -3.8191   60.7066 H       1  ZINC000281257088    0.0700
     31 H31        -9.2783   -3.3816   59.0018 H       1  ZINC000281257088    0.0800
     32 H32        -9.7442    1.9537   62.4098 H       1  ZINC000281257088    0.1100
     33 H33       -10.9330    0.8011   63.0628 H       1  ZINC000281257088    0.1100
     34 H34        -8.9082   -0.5538   63.9126 H       1  ZINC000281257088    0.1400
     35 H35        -7.9331    0.8905   63.5505 H       1  ZINC000281257088    0.1400
     36 H36        -7.4016    0.5236   66.3684 H       1  ZINC000281257088    0.1300
     37 H37        -8.6851    0.7291   67.5844 H       1  ZINC000281257088    0.1300
     38 H38        -8.6910   -0.6944   66.5158 H       1  ZINC000281257088    0.1300
     39 H39        -9.5480    2.3635   59.5502 H       1  ZINC000281257088    0.0800
     40 H40       -10.9656    1.5704   58.8223 H       1  ZINC000281257088    0.0900
     41 H41       -11.0447    2.1740   60.4949 H       1  ZINC000281257088    0.0700
     42 H42        -9.3024    0.1517   57.5523 H       1  ZINC000281257088    0.0800
     43 H43        -9.0922   -1.6141   57.6312 H       1  ZINC000281257088    0.0300
     44 H44       -11.7109   -0.8033   58.3595 H       1  ZINC000281257088    0.3400
     45 H45       -10.5909   -4.1115   55.1316 H       1  ZINC000281257088    0.1400
     46 H46       -10.7540   -3.9131   52.6830 H       1  ZINC000281257088    0.1300
     47 H47       -12.3844    0.0087   53.1128 H       1  ZINC000281257088    0.1300
     48 H48       -12.2246   -0.1953   55.5612 H       1  ZINC000281257088    0.1300
     49 H49       -12.5503   -1.7058   59.3427 H       1  ZINC000281257088    0.0600
     50 H50       -13.5260   -3.1899   59.4604 H       1  ZINC000281257088    0.0500
     51 H51       -11.7490   -3.2885   59.4882 H       1  ZINC000281257088    0.0600
     52 H52       -13.7769   -2.2423   55.8692 H       1  ZINC000281257088    0.0500
     53 H53       -14.7103   -2.5789   57.3469 H       1  ZINC000281257088    0.0600
     54 H54       -13.7345   -1.0948   57.2293 H       1  ZINC000281257088    0.0600
     55 H55       -11.8522   -4.9134   57.6429 H       1  ZINC000281257088    0.0500
     56 H56       -13.6200   -4.7810   57.4834 H       1  ZINC000281257088    0.0600
     57 H57       -12.5737   -4.4690   56.0776 H       1  ZINC000281257088    0.0600
@<TRIPOS>BOND
     1     1     2    1
     2     1    29    1
     3     1    30    1
     4     1    31    1
     5     2    13    1
     6     2     3    2
     7     3     4    1
     8     4     5    1
     9     4    11    1
    10     5     6    1
    11     5    32    1
    12     5    33    1
    13     6     7    1
    14     6    34    1
    15     6    35    1
    16     7     8    1
    17     7     9    2
    18     7    10    2
    19     8    36    1
    20     8    37    1
    21     8    38    1
    22    11    12    1
    23    11    13    2
    24    12    39    1
    25    12    40    1
    26    12    41    1
    27    13    14    1
    28    14    15    1
    29    14    42    1
    30    14    43    1
    31    15    16    1
    32    15    44    1
    33    16    17    1
    34    16    18    1
    35    16    25    1
    36    18    24   ar
    37    18    19   ar
    38    19    20   ar
    39    19    45    1
    40    20    21   ar
    41    20    46    1
    42    21    22    1
    43    21    23   ar
    44    23    24   ar
    45    23    47    1
    46    24    48    1
    47    25    26    1
    48    25    27    1
    49    25    28    1
    50    26    49    1
    51    26    50    1
    52    26    51    1
    53    27    52    1
    54    27    53    1
    55    27    54    1
    56    28    55    1
    57    28    56    1
    58    28    57    1
@<TRIPOS>SUBSTRUCTURE
     1 ZINC000281257088        1 TEMP              0 ****  ****    0 ROOT


##########                                Name:    ZINC001018437438
##########                DOCK_Rotatable_Bonds:                   8
##########                         Heavy_Atoms:                  24
##########                    Molecular_Weight:              333.39
##########                DOCK_Rotatable_Bonds:                   8
##########                       Formal_Charge:        -4.17233e-07
##########                     HBond_Acceptors:                   8
##########                        HBond_Donors:                   4
##########                         Heavy_Atoms:                  24
##########                          Grid_Score:          -32.976620
##########                     Grid_vdw_energy:          -32.624226
##########                      Grid_es_energy:           -0.352395
##########           Internal_energy_repulsive:           90.382126

@<TRIPOS>MOLECULE
ZINC001018437438
 47 49 1 0 0
SMALL
USER_CHARGES


@<TRIPOS>ATOM
      1 C1        -15.3482   -3.5340   54.6973 C.3     1  ZINC001018437438   -0.1400
      2 C2        -14.7597   -2.7972   55.9020 C.3     1  ZINC001018437438    0.1400
      3 H3        -15.2534   -1.8322   56.0170 H       1  ZINC001018437438    0.0700
      4 C4        -14.9677   -3.6344   57.1679 C.3     1  ZINC001018437438   -0.1300
      5 C5        -14.2566   -2.9600   58.3434 C.3     1  ZINC001018437438   -0.1300
      6 C6        -12.7553   -2.8822   58.0569 C.3     1  ZINC001018437438    0.1300
      7 H7        -12.3629   -3.8864   57.8971 H       1  ZINC001018437438    0.1000
      8 N8        -12.0714   -2.2656   59.1964 N.am    1  ZINC001018437438   -0.7200
      9 C9        -10.8339   -2.6734   59.5407 C.2     1  ZINC001018437438    0.6000
     10 O10       -10.2842   -3.5524   58.9046 O.2     1  ZINC001018437438   -0.5100
     11 C11       -10.1477   -2.0553   60.6864 C.2     1  ZINC001018437438   -0.0400
     12 C12       -10.6082   -1.0066   61.4635 C.2     1  ZINC001018437438   -0.1400
     13 C13        -9.6097   -0.7847   62.4147 C.2     1  ZINC001018437438    0.0600
     14 C14        -9.6353    0.2597   63.5007 C.3     1  ZINC001018437438   -0.0800
     15 C15       -10.2174    1.6303   63.1491 C.3     1  ZINC001018437438   -0.1700
     16 C16       -11.0018    0.6743   64.0501 C.3     1  ZINC001018437438   -0.1600
     17 N17        -8.6485   -1.6453   62.1959 N.2     1  ZINC001018437438   -0.2600
     18 N18        -8.9312   -2.4054   61.1997 N.pl3   1  ZINC001018437438   -0.3800
     19 C19       -12.5223   -2.0364   56.8012 C.3     1  ZINC001018437438    0.1000
     20 N20       -13.3192   -2.5923   55.6985 N.am    1  ZINC001018437438   -0.6100
     21 C21       -12.7386   -2.9125   54.5251 C.2     1  ZINC001018437438    0.5200
     22 O22       -13.4063   -3.3749   53.6244 O.2     1  ZINC001018437438   -0.4800
     23 C23       -11.2597   -2.6961   54.3324 C.3     1  ZINC001018437438   -0.1700
     24 C24       -10.8662   -3.1254   52.9424 C.2     1  ZINC001018437438    0.5200
     25 N25       -10.1919   -2.2772   52.1408 N.am    1  ZINC001018437438   -0.8600
     26 O26       -11.1563   -4.2339   52.5451 O.2     1  ZINC001018437438   -0.5000
     27 H27       -14.7870   -4.4520   54.5231 H       1  ZINC001018437438    0.0700
     28 H28       -16.3919   -3.7783   54.8951 H       1  ZINC001018437438    0.0500
     29 H29       -15.2852   -2.8967   53.8152 H       1  ZINC001018437438    0.0800
     30 H30       -16.0336   -3.7106   57.3826 H       1  ZINC001018437438    0.0900
     31 H31       -14.5545   -4.6316   57.0165 H       1  ZINC001018437438    0.0700
     32 H32       -14.6532   -1.9537   58.4786 H       1  ZINC001018437438    0.0700
     33 H33       -14.4237   -3.5408   59.2505 H       1  ZINC001018437438    0.0800
     34 H34       -12.5093   -1.5638   59.7030 H       1  ZINC001018437438    0.4000
     35 H35       -11.5412   -0.4732   61.3570 H       1  ZINC001018437438    0.1700
     36 H36        -8.7993    0.2318   64.1996 H       1  ZINC001018437438    0.1200
     37 H37        -9.7642    2.5045   63.6167 H       1  ZINC001018437438    0.1000
     38 H38       -10.5817    1.7766   62.1324 H       1  ZINC001018437438    0.1000
     39 H39       -11.8823    0.1916   63.6260 H       1  ZINC001018437438    0.1000
     40 H40       -11.0647    0.9195   65.1102 H       1  ZINC001018437438    0.1000
     41 H41        -8.3642   -3.1151   60.8595 H       1  ZINC001018437438    0.4400
     42 H42       -12.8313   -1.0084   56.9905 H       1  ZINC001018437438    0.0700
     43 H43       -11.4653   -2.0594   56.5360 H       1  ZINC001018437438    0.0900
     44 H44       -11.0266   -1.6398   54.4661 H       1  ZINC001018437438    0.1200
     45 H45       -10.7077   -3.2854   55.0646 H       1  ZINC001018437438    0.1200
     46 H46        -9.9395   -2.5529   51.2458 H       1  ZINC001018437438    0.4000
     47 H47        -9.9588   -1.3911   52.4592 H       1  ZINC001018437438    0.4000
@<TRIPOS>BOND
     1     1     2    1
     2     1    27    1
     3     1    28    1
     4     1    29    1
     5     2     3    1
     6     2    20    1
     7     2     4    1
     8     4     5    1
     9     4    30    1
    10     4    31    1
    11     5     6    1
    12     5    32    1
    13     5    33    1
    14     6     7    1
    15     6     8    1
    16     6    19    1
    17     8     9   am
    18     8    34    1
    19     9    10    2
    20     9    11    1
    21    11    18    1
    22    11    12    2
    23    12    13    1
    24    12    35    1
    25    13    14    1
    26    13    17    2
    27    14    16    1
    28    14    15    1
    29    14    36    1
    30    15    16    1
    31    15    37    1
    32    15    38    1
    33    16    39    1
    34    16    40    1
    35    17    18    1
    36    18    41    1
    37    19    20    1
    38    19    42    1
    39    19    43    1
    40    20    21   am
    41    21    22    2
    42    21    23    1
    43    23    24    1
    44    23    44    1
    45    23    45    1
    46    24    25   am
    47    24    26    2
    48    25    46    1
    49    25    47    1
@<TRIPOS>SUBSTRUCTURE
     1 ZINC001018437438        1 TEMP              0 ****  ****    0 ROOT


##########                                Name:    ZINC001574157642
##########                DOCK_Rotatable_Bonds:                   9
##########                         Heavy_Atoms:                  28
##########                    Molecular_Weight:             387.445
##########                DOCK_Rotatable_Bonds:                   9
##########                       Formal_Charge:          -0.0400004
##########                     HBond_Acceptors:                  11
##########                        HBond_Donors:                   4
##########                         Heavy_Atoms:                  28
##########                          Grid_Score:          -32.966732
##########                     Grid_vdw_energy:          -29.984438
##########                      Grid_es_energy:           -2.982294
##########           Internal_energy_repulsive:           12.220587

@<TRIPOS>MOLECULE
ZINC001574157642
 53 55 1 0 0
SMALL
USER_CHARGES


@<TRIPOS>ATOM
      1 C1        -10.3081    1.6350   63.2858 C.3     1  ZINC001574157642   -0.1400
      2 C2         -9.9202    0.8224   62.0487 C.3     1  ZINC001574157642   -0.0900
      3 C3         -9.8746   -0.6639   62.4086 C.3     1  ZINC001574157642   -0.1500
      4 C4        -10.9553    1.0483   60.9449 C.3     1  ZINC001574157642   -0.1300
      5 C5        -10.3028    0.8218   59.5796 C.3     1  ZINC001574157642    0.1300
      6 H6         -9.2318    0.6668   59.7101 H       1  ZINC001574157642    0.1100
      7 C7        -10.5367    2.0466   58.6931 C.3     1  ZINC001574157642    0.1100
      8 N8         -9.2518    2.6794   58.3856 N.pl3   1  ZINC001574157642   -0.7100
      9 C9         -8.7172    2.5811   57.1070 C.ar    1  ZINC001574157642    0.3700
     10 C10        -7.6437    3.3893   56.7368 C.ar    1  ZINC001574157642    0.0000
     11 N11        -7.1362    3.2969   55.5237 N.ar    1  ZINC001574157642   -0.3700
     12 C12        -7.6484    2.4319   54.6527 C.ar    1  ZINC001574157642    0.0800
     13 C13        -7.0772    2.3272   53.2872 C.2     1  ZINC001574157642    0.2300
     14 N14        -7.5128    1.5591   52.3081 N.2     1  ZINC001574157642   -0.2700
     15 N15        -6.7526    1.7543   51.2859 N.pl3   1  ZINC001574157642   -0.2300
     16 N16        -5.8494    2.6211   51.5861 N.2     1  ZINC001574157642   -0.0400
     17 N17        -6.0212    2.9996   52.8071 N.2     1  ZINC001574157642   -0.2600
     18 C18        -8.7210    1.6239   55.0231 C.ar    1  ZINC001574157642    0.1600
     19 N19        -9.2255    1.7137   56.2402 N.ar    1  ZINC001574157642   -0.5000
     20 N20       -10.8936   -0.3597   58.9461 N.am    1  ZINC001574157642   -0.7300
     21 C21       -10.1103   -1.2268   58.2745 C.2     1  ZINC001574157642    0.5200
     22 O22        -8.9166   -1.0283   58.1934 O.2     1  ZINC001574157642   -0.5100
     23 C23       -10.7177   -2.4430   57.6242 C.3     1  ZINC001574157642   -0.1300
     24 H24       -10.3405   -2.5403   56.6062 H       1  ZINC001574157642    0.1100
     25 C25       -12.2445   -2.3029   57.5960 C.3     1  ZINC001574157642   -0.1000
     26 C26       -12.8211   -3.4572   56.7724 C.3     1  ZINC001574157642   -0.1400
     27 C27       -12.2266   -4.7582   57.2297 C.2     1  ZINC001574157642    0.5200
     28 O28       -12.7920   -5.7867   56.9239 O.2     1  ZINC001574157642   -0.5500
     29 N29       -11.1099   -4.8432   57.9537 N.am    1  ZINC001574157642   -0.7200
     30 C30       -10.3519   -3.6913   58.4282 C.3     1  ZINC001574157642    0.1200
     31 H31       -11.2894    1.3160   63.6370 H       1  ZINC001574157642    0.0400
     32 H32        -9.5707    1.4741   64.0720 H       1  ZINC001574157642    0.0500
     33 H33       -10.3406    2.6939   63.0293 H       1  ZINC001574157642    0.0700
     34 H34        -8.9390    1.1415   61.6974 H       1  ZINC001574157642    0.0700
     35 H35       -10.8559   -0.9830   62.7599 H       1  ZINC001574157642    0.0500
     36 H36        -9.5982   -1.2429   61.5274 H       1  ZINC001574157642    0.0500
     37 H37        -9.1372   -0.8248   63.1950 H       1  ZINC001574157642    0.0500
     38 H38       -11.7817    0.3491   61.0731 H       1  ZINC001574157642    0.0700
     39 H39       -11.3313    2.0697   61.0029 H       1  ZINC001574157642    0.0800
     40 H40       -11.0204    1.7374   57.7665 H       1  ZINC001574157642    0.0800
     41 H41       -11.1758    2.7575   59.2169 H       1  ZINC001574157642    0.0900
     42 H42        -8.7741    3.1672   59.0748 H       1  ZINC001574157642    0.4100
     43 H43        -7.2277    4.0916   57.4439 H       1  ZINC001574157642    0.1700
     44 H44        -6.8460    1.3163   50.4255 H       1  ZINC001574157642    0.4800
     45 H45        -9.1375    0.9216   54.3162 H       1  ZINC001574157642    0.1800
     46 H46       -11.8485   -0.5178   59.0099 H       1  ZINC001574157642    0.4000
     47 H47       -12.6358   -2.3461   58.6124 H       1  ZINC001574157642    0.0800
     48 H48       -12.5173   -1.3526   57.1372 H       1  ZINC001574157642    0.0900
     49 H49       -13.9031   -3.4885   56.9008 H       1  ZINC001574157642    0.1100
     50 H50       -12.5870   -3.3026   55.7190 H       1  ZINC001574157642    0.1000
     51 H51       -10.7793   -5.7272   58.1773 H       1  ZINC001574157642    0.4000
     52 H52        -9.2860   -3.8935   58.3233 H       1  ZINC001574157642    0.0800
     53 H53       -10.5808   -3.5179   59.4797 H       1  ZINC001574157642    0.0700
@<TRIPOS>BOND
     1     1     2    1
     2     1    31    1
     3     1    32    1
     4     1    33    1
     5     2     3    1
     6     2     4    1
     7     2    34    1
     8     3    35    1
     9     3    36    1
    10     3    37    1
    11     4     5    1
    12     4    38    1
    13     4    39    1
    14     5     6    1
    15     5     7    1
    16     5    20    1
    17     7     8    1
    18     7    40    1
    19     7    41    1
    20     8     9    1
    21     8    42    1
    22     9    19   ar
    23     9    10   ar
    24    10    11   ar
    25    10    43    1
    26    11    12   ar
    27    12    13    1
    28    12    18   ar
    29    13    17    1
    30    13    14    2
    31    14    15    1
    32    15    16    1
    33    15    44    1
    34    16    17    2
    35    18    19   ar
    36    18    45    1
    37    20    21   am
    38    20    46    1
    39    21    22    2
    40    21    23    1
    41    23    24    1
    42    23    30    1
    43    23    25    1
    44    25    26    1
    45    25    47    1
    46    25    48    1
    47    26    27    1
    48    26    49    1
    49    26    50    1
    50    27    28    2
    51    27    29   am
    52    29    30    1
    53    29    51    1
    54    30    52    1
    55    30    53    1
@<TRIPOS>SUBSTRUCTURE
     1 ZINC001574157642        1 TEMP              0 ****  ****    0 ROOT


##########                                Name:    ZINC000498646479
##########                DOCK_Rotatable_Bonds:                   7
##########                         Heavy_Atoms:                  29
##########                    Molecular_Weight:              407.58
##########                DOCK_Rotatable_Bonds:                   7
##########                       Formal_Charge:          -0.0199997
##########                     HBond_Acceptors:                   5
##########                        HBond_Donors:                   0
##########                         Heavy_Atoms:                  29
##########                          Grid_Score:          -32.938007
##########                     Grid_vdw_energy:          -32.476387
##########                      Grid_es_energy:           -0.461620
##########           Internal_energy_repulsive:           30.368610

@<TRIPOS>MOLECULE
ZINC000498646479
 58 61 1 0 0
SMALL
USER_CHARGES


@<TRIPOS>ATOM
      1 C1        -16.8622   -3.5759   47.1354 C.3     1  ZINC000498646479   -0.1500
      2 C2        -16.6708   -2.0820   46.8658 C.3     1  ZINC000498646479   -0.0600
      3 C3        -15.8288   -1.4781   47.9602 C.2     1  ZINC000498646479   -0.1700
      4 C4        -15.9110   -0.2167   48.3861 C.2     1  ZINC000498646479   -0.1400
      5 C5        -15.0345    0.1129   49.4055 C.2     1  ZINC000498646479   -0.1300
      6 C6        -14.2405   -0.8808   49.8073 C.2     1  ZINC000498646479   -0.1900
      7 C7        -13.2047   -0.7786   50.8972 C.3     1  ZINC000498646479    0.1300
      8 N8        -13.8159   -1.1240   52.1876 N.3     1  ZINC000498646479   -0.5300
      9 C9        -12.8521   -0.9679   53.2852 C.3     1  ZINC000498646479    0.0400
     10 C10       -13.5722   -1.1601   54.6241 C.3     1  ZINC000498646479    0.1200
     11 N11       -14.2771   -2.4507   54.5943 N.am    1  ZINC000498646479   -0.6100
     12 C12       -14.1208   -3.3474   55.5883 C.2     1  ZINC000498646479    0.5200
     13 O13       -14.7098   -4.4068   55.5475 O.2     1  ZINC000498646479   -0.5400
     14 C14       -13.2139   -3.0337   56.7503 C.3     1  ZINC000498646479   -0.1000
     15 H15       -13.3146   -1.9814   57.0160 H       1  ZINC000498646479    0.0900
     16 C16       -13.6021   -3.9018   57.9489 C.3     1  ZINC000498646479   -0.1500
     17 C17       -11.7638   -3.3244   56.3585 C.3     1  ZINC000498646479   -0.0600
     18 C18       -10.9195   -3.4324   57.6021 C.ar    1  ZINC000498646479   -0.1200
     19 C19       -10.5461   -2.2806   58.3179 C.ar    1  ZINC000498646479   -0.0200
     20 C20       -10.9338   -0.9934   57.9187 C.ar    1  ZINC000498646479   -0.1200
     21 C21       -10.5407    0.0835   58.6543 C.ar    1  ZINC000498646479   -0.1000
     22 C22        -9.7585   -0.0741   59.7972 C.ar    1  ZINC000498646479   -0.1200
     23 C23        -9.3637   -1.3088   60.2143 C.ar    1  ZINC000498646479   -0.0900
     24 C24        -9.7500   -2.4425   59.4819 C.ar    1  ZINC000498646479   -0.1100
     25 C25        -9.3739   -3.7402   59.8632 C.ar    1  ZINC000498646479    0.1400
     26 N26        -9.7598   -4.7701   59.1466 N.ar    1  ZINC000498646479   -0.4800
     27 C27       -10.5074   -4.6477   58.0587 C.ar    1  ZINC000498646479    0.0800
     28 C28       -15.1575   -2.7366   53.4513 C.3     1  ZINC000498646479    0.1100
     29 C29       -14.3750   -2.4821   52.1586 C.3     1  ZINC000498646479    0.0400
     30 S30       -14.5930   -2.3307   48.8762 S.3     1  ZINC000498646479    0.1300
     31 H31       -17.4712   -4.0128   46.3439 H       1  ZINC000498646479    0.0600
     32 H32       -15.8900   -4.0683   47.1595 H       1  ZINC000498646479    0.0600
     33 H33       -17.3618   -3.7110   48.0947 H       1  ZINC000498646479    0.0600
     34 H34       -16.1712   -1.9470   45.9066 H       1  ZINC000498646479    0.0800
     35 H35       -17.6430   -1.5898   46.8417 H       1  ZINC000498646479    0.0700
     36 H36       -16.6083    0.4937   47.9672 H       1  ZINC000498646479    0.1400
     37 H37       -14.9960    1.1000   49.8421 H       1  ZINC000498646479    0.1300
     38 H38       -12.3866   -1.4675   50.6867 H       1  ZINC000498646479    0.0900
     39 H39       -12.8201    0.2404   50.9385 H       1  ZINC000498646479    0.0500
     40 H40       -12.0637   -1.7138   53.1858 H       1  ZINC000498646479    0.0400
     41 H41       -12.4159    0.0303   53.2469 H       1  ZINC000498646479    0.1000
     42 H42       -12.8438   -1.1594   55.4350 H       1  ZINC000498646479    0.1000
     43 H43       -14.2906   -0.3539   54.7726 H       1  ZINC000498646479    0.0800
     44 H44       -13.0027   -3.6164   58.8135 H       1  ZINC000498646479    0.0700
     45 H45       -14.6585   -3.7571   58.1754 H       1  ZINC000498646479    0.0600
     46 H46       -13.4217   -4.9503   57.7119 H       1  ZINC000498646479    0.0700
     47 H47       -11.7178   -4.2626   55.8055 H       1  ZINC000498646479    0.0900
     48 H48       -11.3873   -2.5150   55.7329 H       1  ZINC000498646479    0.0800
     49 H49       -11.5393   -0.8569   57.0348 H       1  ZINC000498646479    0.1400
     50 H50       -10.8392    1.0748   58.3471 H       1  ZINC000498646479    0.1300
     51 H51        -9.4605    0.7973   60.3611 H       1  ZINC000498646479    0.1300
     52 H52        -8.7577   -1.4150   61.1018 H       1  ZINC000498646479    0.1300
     53 H53        -8.7678   -3.8909   60.7444 H       1  ZINC000498646479    0.1600
     54 H54       -10.7908   -5.5363   57.5141 H       1  ZINC000498646479    0.1500
     55 H55       -15.4772   -3.7779   53.4869 H       1  ZINC000498646479    0.0900
     56 H56       -16.0282   -2.0819   53.4872 H       1  ZINC000498646479    0.0800
     57 H57       -15.0432   -2.5822   51.3033 H       1  ZINC000498646479    0.0900
     58 H58       -13.5653   -3.2071   52.0749 H       1  ZINC000498646479    0.0400
@<TRIPOS>BOND
     1     1     2    1
     2     1    31    1
     3     1    32    1
     4     1    33    1
     5     2     3    1
     6     2    34    1
     7     2    35    1
     8     3    30    1
     9     3     4    2
    10     4     5    1
    11     4    36    1
    12     5     6    2
    13     5    37    1
    14     6     7    1
    15     6    30    1
    16     7     8    1
    17     7    38    1
    18     7    39    1
    19     8    29    1
    20     8     9    1
    21     9    10    1
    22     9    40    1
    23     9    41    1
    24    10    11    1
    25    10    42    1
    26    10    43    1
    27    11    12   am
    28    11    28    1
    29    12    13    2
    30    12    14    1
    31    14    15    1
    32    14    16    1
    33    14    17    1
    34    16    44    1
    35    16    45    1
    36    16    46    1
    37    17    18    1
    38    17    47    1
    39    17    48    1
    40    18    27   ar
    41    18    19   ar
    42    19    24   ar
    43    19    20   ar
    44    20    21   ar
    45    20    49    1
    46    21    22   ar
    47    21    50    1
    48    22    23   ar
    49    22    51    1
    50    23    24   ar
    51    23    52    1
    52    24    25   ar
    53    25    26   ar
    54    25    53    1
    55    26    27   ar
    56    27    54    1
    57    28    29    1
    58    28    55    1
    59    28    56    1
    60    29    57    1
    61    29    58    1
@<TRIPOS>SUBSTRUCTURE
     1 ZINC000498646479        1 TEMP              0 ****  ****    0 ROOT


##########                                Name:    ZINC000469459940
##########                DOCK_Rotatable_Bonds:                   7
##########                         Heavy_Atoms:                  24
##########                    Molecular_Weight:             414.295
##########                DOCK_Rotatable_Bonds:                   7
##########                       Formal_Charge:          -0.0200002
##########                     HBond_Acceptors:                   6
##########                        HBond_Donors:                   1
##########                         Heavy_Atoms:                  24
##########                          Grid_Score:          -32.928238
##########                     Grid_vdw_energy:          -32.229759
##########                      Grid_es_energy:           -0.698480
##########           Internal_energy_repulsive:            6.304993

@<TRIPOS>MOLECULE
ZINC000469459940
 41 42 1 0 0
SMALL
USER_CHARGES


@<TRIPOS>ATOM
      1 C1         -3.1881    1.9591   64.8795 C.3     1  ZINC000469459940   -0.1600
      2 C2         -3.9617    1.3338   66.0419 C.3     1  ZINC000469459940   -0.1200
      3 C3         -5.4255    1.7743   65.9761 C.3     1  ZINC000469459940   -0.1200
      4 C4         -6.2025    1.1365   67.1295 C.3     1  ZINC000469459940   -0.6000
      5 S5         -7.9387    1.6556   67.0491 S.o2    1  ZINC000469459940    2.4900
      6 O6         -8.7122    0.9613   68.0179 O.2     1  ZINC000469459940   -0.9300
      7 O7         -8.0314    3.0669   66.9122 O.2     1  ZINC000469459940   -0.9300
      8 C8         -8.5134    1.0306   65.5051 C.ar    1  ZINC000469459940   -0.6400
      9 C9         -8.2668   -0.2865   65.1605 C.ar    1  ZINC000469459940   -0.0300
     10 C10        -8.7137   -0.7820   63.9530 C.ar    1  ZINC000469459940   -0.0800
     11 C11        -9.4163    0.0485   63.0784 C.ar    1  ZINC000469459940   -0.0900
     12 C12        -9.8986   -0.4757   61.7832 C.2     1  ZINC000469459940    0.5600
     13 O13       -10.9922   -0.1492   61.3646 O.2     1  ZINC000469459940   -0.5000
     14 N14        -9.1259   -1.3158   61.0665 N.am    1  ZINC000469459940   -0.6700
     15 C15        -9.5824   -1.8119   59.8408 C.ar    1  ZINC000469459940    0.1900
     16 C16        -9.8978   -3.1579   59.7096 C.ar    1  ZINC000469459940   -0.1500
     17 C17       -10.3484   -3.6465   58.4985 C.ar    1  ZINC000469459940   -0.0400
     18 C18       -10.4856   -2.7969   57.4159 C.ar    1  ZINC000469459940   -0.1500
     19 Br19      -11.1027   -3.4698   55.7599 Br      1  ZINC000469459940   -0.0200
     20 C20       -10.1717   -1.4528   57.5430 C.ar    1  ZINC000469459940    0.1500
     21 F21       -10.3065   -0.6247   56.4841 F       1  ZINC000469459940   -0.1200
     22 C22        -9.7261   -0.9580   58.7551 C.ar    1  ZINC000469459940   -0.1500
     23 C23        -9.6621    1.3763   63.4325 C.ar    1  ZINC000469459940   -0.1100
     24 C24        -9.2142    1.8577   64.6452 C.ar    1  ZINC000469459940   -0.0300
     25 H25        -3.6239    1.6321   63.9353 H       1  ZINC000469459940    0.0600
     26 H26        -3.2441    3.0455   64.9484 H       1  ZINC000469459940    0.0600
     27 H27        -2.1454    1.6453   64.9264 H       1  ZINC000469459940    0.0600
     28 H28        -3.9058    0.2475   65.9730 H       1  ZINC000469459940    0.0700
     29 H29        -3.5260    1.6609   66.9860 H       1  ZINC000469459940    0.0700
     30 H30        -5.4822    2.8599   66.0563 H       1  ZINC000469459940    0.0800
     31 H31        -5.8581    1.4571   65.0272 H       1  ZINC000469459940    0.0800
     32 H32        -6.1438    0.0510   67.0507 H       1  ZINC000469459940    0.1400
     33 H33        -5.7715    1.4557   68.0784 H       1  ZINC000469459940    0.1400
     34 H34        -7.7231   -0.9280   65.8381 H       1  ZINC000469459940    0.1500
     35 H35        -8.5199   -1.8100   63.6849 H       1  ZINC000469459940    0.1500
     36 H36        -8.2534   -1.5764   61.4006 H       1  ZINC000469459940    0.4200
     37 H37        -9.7905   -3.8227   60.5538 H       1  ZINC000469459940    0.1500
     38 H38       -10.5936   -4.6933   58.3968 H       1  ZINC000469459940    0.1500
     39 H39        -9.4816    0.0892   58.8547 H       1  ZINC000469459940    0.1600
     40 H40       -10.2048    2.0241   62.7602 H       1  ZINC000469459940    0.1400
     41 H41        -9.4036    2.8847   64.9204 H       1  ZINC000469459940    0.1500
@<TRIPOS>BOND
     1     1     2    1
     2     1    25    1
     3     1    26    1
     4     1    27    1
     5     2     3    1
     6     2    28    1
     7     2    29    1
     8     3     4    1
     9     3    30    1
    10     3    31    1
    11     4     5    1
    12     4    32    1
    13     4    33    1
    14     5     6    2
    15     5     7    2
    16     5     8    1
    17     8    24   ar
    18     8     9   ar
    19     9    10   ar
    20     9    34    1
    21    10    11   ar
    22    10    35    1
    23    11    12    1
    24    11    23   ar
    25    12    13    2
    26    12    14   am
    27    14    15    1
    28    14    36    1
    29    15    22   ar
    30    15    16   ar
    31    16    17   ar
    32    16    37    1
    33    17    18   ar
    34    17    38    1
    35    18    19    1
    36    18    20   ar
    37    20    21    1
    38    20    22   ar
    39    22    39    1
    40    23    24   ar
    41    23    40    1
    42    24    41    1
@<TRIPOS>SUBSTRUCTURE
     1 ZINC000469459940        1 TEMP              0 ****  ****    0 ROOT


##########                                Name:    ZINC000484424341
##########                DOCK_Rotatable_Bonds:                   7
##########                         Heavy_Atoms:                  26
##########                    Molecular_Weight:             359.425
##########                DOCK_Rotatable_Bonds:                   7
##########                       Formal_Charge:          -0.0100009
##########                     HBond_Acceptors:                   7
##########                        HBond_Donors:                   1
##########                         Heavy_Atoms:                  26
##########                          Grid_Score:          -32.920338
##########                     Grid_vdw_energy:          -32.279964
##########                      Grid_es_energy:           -0.640373
##########           Internal_energy_repulsive:           18.994551

@<TRIPOS>MOLECULE
ZINC000484424341
 51 53 1 0 0
SMALL
USER_CHARGES


@<TRIPOS>ATOM
      1 C1        -11.3588   -4.0973   52.9847 C.3     1  ZINC000484424341    0.0300
      2 O2        -11.8466   -2.9541   53.6898 O.3     1  ZINC000484424341   -0.3800
      3 C3        -11.9105   -3.1287   55.1067 C.3     1  ZINC000484424341    0.1300
      4 H4        -11.5319   -4.1168   55.3683 H       1  ZINC000484424341    0.0700
      5 C5        -13.3623   -2.9992   55.5715 C.3     1  ZINC000484424341   -0.1700
      6 C6        -11.0711   -2.0744   55.7811 C.ar    1  ZINC000484424341   -0.0700
      7 C7        -10.7512   -0.9105   55.1066 C.ar    1  ZINC000484424341   -0.1000
      8 C8         -9.9811    0.0598   55.7218 C.ar    1  ZINC000484424341   -0.1000
      9 C9         -9.5290   -0.1310   57.0124 C.ar    1  ZINC000484424341   -0.1100
     10 C10        -9.8485   -1.2994   57.6932 C.ar    1  ZINC000484424341    0.1400
     11 N11        -9.3930   -1.4956   58.9994 N.am    1  ZINC000484424341   -0.6400
     12 C12        -9.8294   -0.6956   59.9925 C.2     1  ZINC000484424341    0.5100
     13 O13       -10.6181    0.1950   59.7522 O.2     1  ZINC000484424341   -0.4900
     14 C14        -9.3425   -0.9053   61.3888 C.2     1  ZINC000484424341    0.5200
     15 O15        -8.7648   -1.9315   61.6824 O.2     1  ZINC000484424341   -0.5200
     16 N16        -9.5445    0.0451   62.3228 N.am    1  ZINC000484424341   -0.5800
     17 C17       -10.2261    1.3294   62.1049 C.3     1  ZINC000484424341    0.1100
     18 C18       -10.2450    2.0733   63.4569 C.3     1  ZINC000484424341   -0.1500
     19 C19       -10.0754    0.9257   64.4873 C.3     1  ZINC000484424341    0.1500
     20 H20       -11.0301    0.4417   64.6937 H       1  ZINC000484424341    0.1100
     21 N21        -9.4606    1.4163   65.7232 N.am    1  ZINC000484424341   -0.6100
     22 C22        -9.6210    2.7790   66.2439 C.3     1  ZINC000484424341    0.1000
     23 C23        -9.1867    2.7083   67.7246 C.3     1  ZINC000484424341   -0.1300
     24 C24        -8.2255    1.4971   67.7137 C.3     1  ZINC000484424341   -0.1600
     25 C25        -8.6815    0.6742   66.5290 C.2     1  ZINC000484424341    0.5200
     26 O26        -8.3818   -0.4842   66.3313 O.2     1  ZINC000484424341   -0.5200
     27 C27        -9.1244   -0.0337   63.7337 C.3     1  ZINC000484424341    0.0900
     28 C28       -10.6269   -2.2693   57.0743 C.ar    1  ZINC000484424341   -0.1300
     29 H29       -12.0134   -4.9479   53.1747 H       1  ZINC000484424341    0.0400
     30 H30       -11.3407   -3.8844   51.9158 H       1  ZINC000484424341    0.0900
     31 H31       -10.3503   -4.3314   53.3256 H       1  ZINC000484424341    0.0400
     32 H32       -13.7409   -2.0111   55.3098 H       1  ZINC000484424341    0.0700
     33 H33       -13.9694   -3.7617   55.0837 H       1  ZINC000484424341    0.0600
     34 H34       -13.4111   -3.1324   56.6523 H       1  ZINC000484424341    0.0700
     35 H35       -11.1033   -0.7588   54.0969 H       1  ZINC000484424341    0.1300
     36 H36        -9.7328    0.9676   55.1919 H       1  ZINC000484424341    0.1300
     37 H37        -8.9274    0.6269   57.4921 H       1  ZINC000484424341    0.1300
     38 H38        -8.7628   -2.2074   59.1915 H       1  ZINC000484424341    0.4200
     39 H39        -9.6817    1.9173   61.3659 H       1  ZINC000484424341    0.0800
     40 H40       -11.2465    1.1544   61.7637 H       1  ZINC000484424341    0.0800
     41 H41        -9.4144    2.7760   63.5221 H       1  ZINC000484424341    0.0900
     42 H42       -11.1966    2.5846   63.6024 H       1  ZINC000484424341    0.0900
     43 H43        -8.9809    3.4701   65.6956 H       1  ZINC000484424341    0.0800
     44 H44       -10.6631    3.0904   66.1709 H       1  ZINC000484424341    0.0800
     45 H45        -8.6647    3.6178   68.0219 H       1  ZINC000484424341    0.0900
     46 H46       -10.0423    2.5214   68.3736 H       1  ZINC000484424341    0.0800
     47 H47        -7.1958    1.8285   67.5793 H       1  ZINC000484424341    0.1100
     48 H48        -8.3251    0.9227   68.6347 H       1  ZINC000484424341    0.1000
     49 H49        -9.2351   -1.0507   64.1098 H       1  ZINC000484424341    0.0900
     50 H50        -8.0913    0.2989   63.8354 H       1  ZINC000484424341    0.0900
     51 H51       -10.8774   -3.1785   57.6007 H       1  ZINC000484424341    0.1300
@<TRIPOS>BOND
     1     1     2    1
     2     1    29    1
     3     1    30    1
     4     1    31    1
     5     2     3    1
     6     3     4    1
     7     3     5    1
     8     3     6    1
     9     5    32    1
    10     5    33    1
    11     5    34    1
    12     6    28   ar
    13     6     7   ar
    14     7     8   ar
    15     7    35    1
    16     8     9   ar
    17     8    36    1
    18     9    10   ar
    19     9    37    1
    20    10    11    1
    21    10    28   ar
    22    11    12   am
    23    11    38    1
    24    12    13    2
    25    12    14    1
    26    14    15    2
    27    14    16   am
    28    16    27    1
    29    16    17    1
    30    17    18    1
    31    17    39    1
    32    17    40    1
    33    18    19    1
    34    18    41    1
    35    18    42    1
    36    19    20    1
    37    19    21    1
    38    19    27    1
    39    21    25   am
    40    21    22    1
    41    22    23    1
    42    22    43    1
    43    22    44    1
    44    23    24    1
    45    23    45    1
    46    23    46    1
    47    24    25    1
    48    24    47    1
    49    24    48    1
    50    25    26    2
    51    27    49    1
    52    27    50    1
    53    28    51    1
@<TRIPOS>SUBSTRUCTURE
     1 ZINC000484424341        1 TEMP              0 ****  ****    0 ROOT


##########                                Name:    ZINC000022858610
##########                DOCK_Rotatable_Bonds:                   9
##########                         Heavy_Atoms:                  26
##########                    Molecular_Weight:             369.343
##########                DOCK_Rotatable_Bonds:                   9
##########                       Formal_Charge:          0.00999956
##########                     HBond_Acceptors:                   9
##########                        HBond_Donors:                   2
##########                         Heavy_Atoms:                  26
##########                          Grid_Score:          -32.903484
##########                     Grid_vdw_energy:          -32.200470
##########                      Grid_es_energy:           -0.703013
##########           Internal_energy_repulsive:           16.908291

@<TRIPOS>MOLECULE
ZINC000022858610
 44 45 1 0 0
SMALL
USER_CHARGES


@<TRIPOS>ATOM
      1 C1        -14.5057   -3.1616   56.0285 C.3     1  <0>         0.0100
      2 N2        -13.5869   -3.8522   56.9432 N.3     1  <0>        -0.5300
      3 C3        -14.2745   -4.9315   57.6646 C.3     1  <0>         0.0200
      4 C4        -12.4135   -4.3647   56.2231 C.3     1  <0>         0.1500
      5 H5        -12.6902   -5.2620   55.6696 H       1  <0>         0.1200
      6 C6        -11.3084   -4.7042   57.2253 C.3     1  <0>         0.1300
      7 N7        -11.3272   -3.7319   58.3209 N.am    1  <0>        -0.6800
      8 C8        -10.2445   -3.5848   59.1100 C.2     1  <0>         0.5100
      9 O9         -9.2535   -4.2567   58.9120 O.2     1  <0>        -0.5100
     10 C10       -10.2643   -2.5948   60.2280 C.2     1  <0>         0.5200
     11 O11       -11.0266   -2.7470   61.1601 O.2     1  <0>        -0.4900
     12 N12        -9.4355   -1.5322   60.2020 N.am    1  <0>        -0.6500
     13 C13        -9.4540   -0.6060   61.2481 C.ar    1  <0>         0.1900
     14 C14        -9.0548   -0.9873   62.5227 C.ar    1  <0>        -0.1200
     15 C15        -9.0745   -0.0692   63.5544 C.ar    1  <0>        -0.0700
     16 C16        -9.4909    1.2282   63.3195 C.ar    1  <0>        -0.1300
     17 C17        -9.8895    1.6112   62.0517 C.ar    1  <0>        -0.0500
     18 C18        -9.8665    0.7002   61.0143 C.ar    1  <0>        -0.2100
     19 C19       -10.3010    1.1183   59.6333 C.3     1  <0>         0.5100
     20 F20        -9.2050    1.0702   58.7651 F       1  <0>        -0.1700
     21 F21       -11.2974    0.2499   59.1750 F       1  <0>        -0.1800
     22 F22       -10.8038    2.4231   59.6776 F       1  <0>        -0.1700
     23 C23       -11.9157   -3.3155   55.2628 C.2     1  <0>        -0.0500
     24 C24       -11.9832   -3.3817   53.9210 C.2     1  <0>        -0.1900
     25 C25       -11.4037   -2.1923   53.4225 C.2     1  <0>        -0.2100
     26 C26       -11.0168   -1.4704   54.4895 C.2     1  <0>        -0.0400
     27 O27       -11.3346   -2.1529   55.6017 O.3     1  <0>        -0.1700
     28 H28       -15.2642   -2.6330   56.6059 H       1  <0>         0.0700
     29 H29       -13.9472   -2.4478   55.4229 H       1  <0>         0.0700
     30 H30       -14.9875   -3.8915   55.3779 H       1  <0>         0.0500
     31 H31       -14.6653   -5.6552   56.9492 H       1  <0>         0.0300
     32 H32       -13.5715   -5.4261   58.3347 H       1  <0>         0.0700
     33 H33       -15.0973   -4.5139   58.2449 H       1  <0>         0.0800
     34 H34       -11.4748   -5.7048   57.6247 H       1  <0>         0.0900
     35 H35       -10.3407   -4.6691   56.7249 H       1  <0>         0.0800
     36 H36       -12.1188   -3.1939   58.4785 H       1  <0>         0.4200
     37 H37        -8.8262   -1.4105   59.4572 H       1  <0>         0.4300
     38 H38        -8.7297   -2.0006   62.7070 H       1  <0>         0.1500
     39 H39        -8.7645   -0.3651   64.5457 H       1  <0>         0.1400
     40 H40        -9.5052    1.9441   64.1280 H       1  <0>         0.1400
     41 H41       -10.2149    2.6252   61.8718 H       1  <0>         0.1500
     42 H42       -12.3995   -4.1889   53.3366 H       1  <0>         0.1500
     43 H43       -11.2927   -1.9165   52.3842 H       1  <0>         0.1500
     44 H44       -10.5358   -0.5039   54.4574 H       1  <0>         0.2000
@<TRIPOS>BOND
     1     1     2    1
     2     1    28    1
     3     1    29    1
     4     1    30    1
     5     2     3    1
     6     2     4    1
     7     3    31    1
     8     3    32    1
     9     3    33    1
    10     4     5    1
    11     4     6    1
    12     4    23    1
    13     6     7    1
    14     6    34    1
    15     6    35    1
    16     7     8   am
    17     7    36    1
    18     8     9    2
    19     8    10    1
    20    10    11    2
    21    10    12   am
    22    12    13    1
    23    12    37    1
    24    13    18   ar
    25    13    14   ar
    26    14    15   ar
    27    14    38    1
    28    15    16   ar
    29    15    39    1
    30    16    17   ar
    31    16    40    1
    32    17    18   ar
    33    17    41    1
    34    18    19    1
    35    19    20    1
    36    19    21    1
    37    19    22    1
    38    23    27    1
    39    23    24    2
    40    24    25    1
    41    24    42    1
    42    25    26    2
    43    25    43    1
    44    26    27    1
    45    26    44    1
@<TRIPOS>SUBSTRUCTURE
     1 <0>         1 TEMP              0 ****  ****    0 ROOT


##########                                Name:    ZINC000151850193
##########                DOCK_Rotatable_Bonds:                  11
##########                         Heavy_Atoms:                  23
##########                    Molecular_Weight:             328.452
##########                DOCK_Rotatable_Bonds:                  11
##########                       Formal_Charge:            0.039999
##########                     HBond_Acceptors:                   6
##########                        HBond_Donors:                   2
##########                         Heavy_Atoms:                  23
##########                          Grid_Score:          -32.887424
##########                     Grid_vdw_energy:          -32.013237
##########                      Grid_es_energy:           -0.874189
##########           Internal_energy_repulsive:           49.498840

@<TRIPOS>MOLECULE
ZINC000151850193
 55 55 1 0 0
SMALL
USER_CHARGES


@<TRIPOS>ATOM
      1 C1        -10.0454    0.3866   60.8972 C.3     1  ZINC000151850193   -0.1500
      2 C2        -10.9841    0.2344   59.6986 C.3     1  ZINC000151850193   -0.1000
      3 C3        -11.2190   -1.2516   59.4202 C.3     1  ZINC000151850193   -0.0800
      4 C4        -11.8293   -1.9903   60.6129 C.3     1  ZINC000151850193   -0.1000
      5 C5        -13.1229   -1.2922   61.0376 C.3     1  ZINC000151850193   -0.1500
      6 C6        -11.9418   -1.5223   58.0901 C.3     1  ZINC000151850193    0.1400
      7 H7        -12.5594   -0.6905   57.7515 H       1  ZINC000151850193    0.1000
      8 N8        -12.6476   -2.8056   58.0565 N.am    1  ZINC000151850193   -0.7000
      9 C9        -13.8932   -2.8765   57.5463 C.2     1  ZINC000151850193    0.5200
     10 O10       -14.4300   -1.8775   57.1165 O.2     1  ZINC000151850193   -0.5300
     11 C11       -14.6186   -4.1968   57.5101 C.3     1  ZINC000151850193   -0.1500
     12 C12       -14.0088   -5.0842   56.4231 C.3     1  ZINC000151850193    0.1500
     13 N13       -14.2178   -4.4642   55.1123 N.am    1  ZINC000151850193   -0.7100
     14 C14       -13.1877   -3.8743   54.4739 C.2     1  ZINC000151850193    0.6500
     15 O15       -12.0862   -3.8554   54.9862 O.2     1  ZINC000151850193   -0.5600
     16 O16       -13.3796   -3.3059   53.2686 O.3     1  ZINC000151850193   -0.3700
     17 C17       -12.4260   -2.2903   52.8595 C.3     1  ZINC000151850193    0.1400
     18 C18       -12.2390   -1.2800   53.9933 C.3     1  ZINC000151850193   -0.1800
     19 C19       -11.0837   -2.9507   52.5386 C.3     1  ZINC000151850193   -0.1400
     20 C20       -12.9502   -1.5698   51.6157 C.3     1  ZINC000151850193   -0.1800
     21 C21       -10.5516   -1.5644   57.4338 C.3     1  ZINC000151850193   -0.1700
     22 C22        -9.9996   -1.9646   58.8122 C.3     1  ZINC000151850193    0.0700
     23 H23        -9.0494   -1.4898   59.0567 H       1  ZINC000151850193    0.0800
     24 O24        -9.9887   -3.3758   59.0368 O.3     1  ZINC000151850193   -0.3700
     25 C25        -8.8697   -3.8347   59.7978 C.3     1  ZINC000151850193    0.0300
     26 H26       -10.5099   -0.0518   61.7805 H       1  ZINC000151850193    0.0600
     27 H27        -9.1053   -0.1245   60.6895 H       1  ZINC000151850193    0.0600
     28 H28        -9.8522    1.4445   61.0754 H       1  ZINC000151850193    0.0600
     29 H29       -11.9360    0.7178   59.9189 H       1  ZINC000151850193    0.0700
     30 H30       -10.5337    0.7014   58.8227 H       1  ZINC000151850193    0.0700
     31 H31       -12.0482   -3.0198   60.3295 H       1  ZINC000151850193    0.0700
     32 H32       -11.1237   -1.9843   61.4437 H       1  ZINC000151850193    0.0700
     33 H33       -12.8941   -0.2864   61.3900 H       1  ZINC000151850193    0.0500
     34 H34       -13.8004   -1.2333   60.1857 H       1  ZINC000151850193    0.0500
     35 H35       -13.5956   -1.8593   61.8393 H       1  ZINC000151850193    0.0500
     36 H36       -12.2186   -3.6043   58.4013 H       1  ZINC000151850193    0.4100
     37 H37       -14.5236   -4.6902   58.4774 H       1  ZINC000151850193    0.1000
     38 H38       -15.6727   -4.0265   57.2911 H       1  ZINC000151850193    0.1000
     39 H39       -12.9401   -5.1986   56.6047 H       1  ZINC000151850193    0.0800
     40 H40       -14.4874   -6.0633   56.4424 H       1  ZINC000151850193    0.0800
     41 H41       -15.0975   -4.4782   54.7039 H       1  ZINC000151850193    0.4100
     42 H42       -11.8656   -1.7933   54.8794 H       1  ZINC000151850193    0.0600
     43 H43       -11.5232   -0.5176   53.6862 H       1  ZINC000151850193    0.0700
     44 H44       -13.1953   -0.8095   54.2220 H       1  ZINC000151850193    0.0900
     45 H45       -11.2168   -3.6705   51.7309 H       1  ZINC000151850193    0.0700
     46 H46       -10.3678   -2.1883   52.2315 H       1  ZINC000151850193    0.0800
     47 H47       -10.7102   -3.4640   53.4246 H       1  ZINC000151850193    0.0700
     48 H48       -13.9065   -1.0993   51.8444 H       1  ZINC000151850193    0.0900
     49 H49       -12.2343   -0.8073   51.3087 H       1  ZINC000151850193    0.0700
     50 H50       -13.0834   -2.2895   50.8080 H       1  ZINC000151850193    0.0600
     51 H51       -10.4485   -2.3441   56.6791 H       1  ZINC000151850193    0.0800
     52 H52       -10.2019   -0.5913   57.0892 H       1  ZINC000151850193    0.1000
     53 H53        -7.9471   -3.5852   59.2738 H       1  ZINC000151850193    0.0400
     54 H54        -8.8734   -3.3533   60.7758 H       1  ZINC000151850193    0.0400
     55 H55        -8.9348   -4.9153   59.9244 H       1  ZINC000151850193    0.0900
@<TRIPOS>BOND
     1     1     2    1
     2     1    26    1
     3     1    27    1
     4     1    28    1
     5     2     3    1
     6     2    29    1
     7     2    30    1
     8     3    22    1
     9     3     4    1
    10     3     6    1
    11     4     5    1
    12     4    31    1
    13     4    32    1
    14     5    33    1
    15     5    34    1
    16     5    35    1
    17     6     7    1
    18     6     8    1
    19     6    21    1
    20     8     9   am
    21     8    36    1
    22     9    10    2
    23     9    11    1
    24    11    12    1
    25    11    37    1
    26    11    38    1
    27    12    13    1
    28    12    39    1
    29    12    40    1
    30    13    14   am
    31    13    41    1
    32    14    15    2
    33    14    16    1
    34    16    17    1
    35    17    18    1
    36    17    19    1
    37    17    20    1
    38    18    42    1
    39    18    43    1
    40    18    44    1
    41    19    45    1
    42    19    46    1
    43    19    47    1
    44    20    48    1
    45    20    49    1
    46    20    50    1
    47    21    22    1
    48    21    51    1
    49    21    52    1
    50    22    23    1
    51    22    24    1
    52    24    25    1
    53    25    53    1
    54    25    54    1
    55    25    55    1
@<TRIPOS>SUBSTRUCTURE
     1 ZINC000151850193        1 TEMP              0 ****  ****    0 ROOT


##########                                Name:    ZINC000675319328
##########                DOCK_Rotatable_Bonds:                   7
##########                         Heavy_Atoms:                  26
##########                    Molecular_Weight:             363.475
##########                DOCK_Rotatable_Bonds:                   7
##########                       Formal_Charge:          -0.0200007
##########                     HBond_Acceptors:                   6
##########                        HBond_Donors:                   1
##########                         Heavy_Atoms:                  26
##########                          Grid_Score:          -32.878185
##########                     Grid_vdw_energy:          -31.925508
##########                      Grid_es_energy:           -0.952678
##########           Internal_energy_repulsive:           16.721273

@<TRIPOS>MOLECULE
ZINC000675319328
 56 58 1 0 0
SMALL
USER_CHARGES


@<TRIPOS>ATOM
      1 C1        -14.3626   -1.7531   48.2317 C.3     1  ZINC000675319328   -0.1600
      2 C2        -14.2322   -0.9111   49.5024 C.3     1  ZINC000675319328    0.1600
      3 H3        -15.1986   -0.8578   50.0037 H       1  ZINC000675319328    0.0900
      4 C4        -13.7703    0.5002   49.1340 C.3     1  ZINC000675319328   -0.1200
      5 C5        -13.3027    1.2293   50.3951 C.3     1  ZINC000675319328   -0.1200
      6 H6        -12.4697    0.7018   50.8598 H       1  ZINC000675319328    0.0800
      7 C7        -12.9157    2.6985   50.0728 C.3     1  ZINC000675319328   -0.1500
      8 C8        -13.1941    3.3817   51.4353 C.3     1  ZINC000675319328    0.0500
      9 O9        -14.3579    2.7200   51.9559 O.3     1  ZINC000675319328   -0.3900
     10 C10       -14.4678    1.4037   51.3928 C.3     1  ZINC000675319328    0.0500
     11 N11       -13.2507   -1.5278   50.3982 N.am    1  ZINC000675319328   -0.7400
     12 C12       -13.6579   -2.1221   51.5373 C.2     1  ZINC000675319328    0.7000
     13 O13       -14.8399   -2.1464   51.8213 O.2     1  ZINC000675319328   -0.5900
     14 N14       -12.7550   -2.6895   52.3615 N.am    1  ZINC000675319328   -0.6200
     15 C15       -11.3273   -2.6439   51.9896 C.3     1  ZINC000675319328    0.1300
     16 C16       -10.4421   -2.3318   53.2079 C.3     1  ZINC000675319328   -0.1300
     17 C17       -11.1117   -1.2818   54.0667 C.3     1  ZINC000675319328    0.0700
     18 N18       -11.9156   -1.9442   55.0925 N.3     1  ZINC000675319328   -0.5500
     19 C19       -11.8934   -1.1857   56.3502 C.3     1  ZINC000675319328    0.1000
     20 C20       -11.0312   -1.9048   57.3555 C.ar    1  ZINC000675319328   -0.0900
     21 C21       -10.1747   -1.1871   58.1695 C.ar    1  ZINC000675319328   -0.0900
     22 C22        -9.3835   -1.8455   59.0917 C.ar    1  ZINC000675319328   -0.1500
     23 C23        -9.4494   -3.2242   59.2007 C.ar    1  ZINC000675319328    0.1000
     24 F24        -8.6767   -3.8688   60.1022 F       1  ZINC000675319328   -0.1400
     25 C25       -10.3080   -3.9418   58.3852 C.ar    1  ZINC000675319328   -0.1500
     26 C26       -11.1017   -3.2808   57.4670 C.ar    1  ZINC000675319328   -0.0700
     27 C27       -13.2396   -2.2851   54.7293 C.3     1  ZINC000675319328    0.0500
     28 C28       -13.2221   -3.3157   53.5817 C.3     1  ZINC000675319328    0.1100
     29 H29       -14.6917   -2.7585   48.4941 H       1  ZINC000675319328    0.0600
     30 H30       -15.0929   -1.2942   47.5651 H       1  ZINC000675319328    0.0700
     31 H31       -13.3962   -1.8064   47.7303 H       1  ZINC000675319328    0.0500
     32 H32       -12.9462    0.4388   48.4231 H       1  ZINC000675319328    0.0700
     33 H33       -14.5985    1.0475   48.6837 H       1  ZINC000675319328    0.0900
     34 H34       -11.8630    2.7770   49.8018 H       1  ZINC000675319328    0.0800
     35 H35       -13.5528    3.1098   49.2897 H       1  ZINC000675319328    0.0800
     36 H36       -12.3476    3.2432   52.1079 H       1  ZINC000675319328    0.0600
     37 H37       -13.3948    4.4435   51.2922 H       1  ZINC000675319328    0.0900
     38 H38       -15.4183    1.3040   50.8685 H       1  ZINC000675319328    0.0700
     39 H39       -14.4001    0.6564   52.1835 H       1  ZINC000675319328    0.0700
     40 H40       -12.3078   -1.5085   50.1716 H       1  ZINC000675319328    0.3900
     41 H41       -11.0357   -3.6087   51.5745 H       1  ZINC000675319328    0.0600
     42 H42       -11.1796   -1.8722   51.2340 H       1  ZINC000675319328    0.0900
     43 H43       -10.2963   -3.2399   53.7927 H       1  ZINC000675319328    0.0800
     44 H44        -9.4753   -1.9603   52.8684 H       1  ZINC000675319328    0.0800
     45 H45       -10.3521   -0.6619   54.5430 H       1  ZINC000675319328    0.0700
     46 H46       -11.7551   -0.6588   53.4454 H       1  ZINC000675319328    0.0400
     47 H47       -11.4862   -0.1912   56.1676 H       1  ZINC000675319328    0.0900
     48 H48       -12.9078   -1.0970   56.7390 H       1  ZINC000675319328    0.0400
     49 H49       -10.1235   -0.1118   58.0844 H       1  ZINC000675319328    0.1300
     50 H50        -8.7139   -1.2848   59.7270 H       1  ZINC000675319328    0.1400
     51 H51       -10.3600   -5.0173   58.4690 H       1  ZINC000675319328    0.1400
     52 H52       -11.7717   -3.8403   56.8311 H       1  ZINC000675319328    0.1300
     53 H53       -13.7530   -2.7107   55.5915 H       1  ZINC000675319328    0.0900
     54 H54       -13.7669   -1.3891   54.4020 H       1  ZINC000675319328    0.0300
     55 H55       -14.2294   -3.7020   53.4258 H       1  ZINC000675319328    0.0700
     56 H56       -12.5554   -4.1375   53.8422 H       1  ZINC000675319328    0.0900
@<TRIPOS>BOND
     1     1     2    1
     2     1    29    1
     3     1    30    1
     4     1    31    1
     5     2     3    1
     6     2     4    1
     7     2    11    1
     8     4     5    1
     9     4    32    1
    10     4    33    1
    11     5     6    1
    12     5    10    1
    13     5     7    1
    14     7     8    1
    15     7    34    1
    16     7    35    1
    17     8     9    1
    18     8    36    1
    19     8    37    1
    20     9    10    1
    21    10    38    1
    22    10    39    1
    23    11    12   am
    24    11    40    1
    25    12    13    2
    26    12    14   am
    27    14    28    1
    28    14    15    1
    29    15    16    1
    30    15    41    1
    31    15    42    1
    32    16    17    1
    33    16    43    1
    34    16    44    1
    35    17    18    1
    36    17    45    1
    37    17    46    1
    38    18    19    1
    39    18    27    1
    40    19    20    1
    41    19    47    1
    42    19    48    1
    43    20    26   ar
    44    20    21   ar
    45    21    22   ar
    46    21    49    1
    47    22    23   ar
    48    22    50    1
    49    23    24    1
    50    23    25   ar
    51    25    26   ar
    52    25    51    1
    53    26    52    1
    54    27    28    1
    55    27    53    1
    56    27    54    1
    57    28    55    1
    58    28    56    1
@<TRIPOS>SUBSTRUCTURE
     1 ZINC000675319328        1 TEMP              0 ****  ****    0 ROOT


##########                                Name:    ZINC000805177769
##########                DOCK_Rotatable_Bonds:                  10
##########                         Heavy_Atoms:                  30
##########                    Molecular_Weight:             417.548
##########                DOCK_Rotatable_Bonds:                  10
##########                       Formal_Charge:           0.0199995
##########                     HBond_Acceptors:                   7
##########                        HBond_Donors:                   1
##########                         Heavy_Atoms:                  30
##########                          Grid_Score:          -32.877567
##########                     Grid_vdw_energy:          -32.362087
##########                      Grid_es_energy:           -0.515480
##########           Internal_energy_repulsive:           54.810562

@<TRIPOS>MOLECULE
ZINC000805177769
 65 66 1 0 0
SMALL
USER_CHARGES


@<TRIPOS>ATOM
      1 C1        -10.3252   -0.9982   60.5960 C.3     1  ZINC000805177769   -0.1200
      2 C2        -10.9958   -1.9273   59.6171 C.ar    1  ZINC000805177769   -0.0800
      3 C3        -10.2320   -2.6899   58.7538 C.ar    1  ZINC000805177769   -0.1200
      4 C4        -10.8473   -3.5423   57.8557 C.ar    1  ZINC000805177769   -0.1100
      5 C5        -12.2260   -3.6320   57.8215 C.ar    1  ZINC000805177769   -0.0900
      6 C6        -12.8966   -4.5607   56.8423 C.3     1  ZINC000805177769   -0.0900
      7 C7        -13.2422   -3.7921   55.5652 C.3     1  ZINC000805177769    0.1500
      8 H8        -13.6655   -2.8226   55.8279 H       1  ZINC000805177769    0.1000
      9 C9        -14.2620   -4.5899   54.7501 C.3     1  ZINC000805177769   -0.1700
     10 N10       -12.0278   -3.5953   54.7699 N.am    1  ZINC000805177769   -0.6900
     11 C11       -11.8618   -2.4599   54.0630 C.2     1  ZINC000805177769    0.5100
     12 O12       -12.7190   -1.6013   54.0841 O.2     1  ZINC000805177769   -0.5100
     13 C13       -10.6220   -2.2584   53.2531 C.2     1  ZINC000805177769    0.5200
     14 O14       -10.1200   -3.1959   52.6687 O.2     1  ZINC000805177769   -0.5200
     15 N15       -10.0616   -1.0354   53.1718 N.am    1  ZINC000805177769   -0.5900
     16 C16       -10.5628    0.1820   53.8260 C.3     1  ZINC000805177769    0.1100
     17 C17        -9.5892    1.3260   53.4729 C.3     1  ZINC000805177769   -0.1500
     18 C18        -8.2846    0.5709   53.1050 C.3     1  ZINC000805177769    0.1500
     19 H19        -7.7186    0.3102   53.9993 H       1  ZINC000805177769    0.1200
     20 N20        -7.4658    1.3576   52.1793 N.am    1  ZINC000805177769   -0.5900
     21 C21        -7.0077    0.7642   50.9206 C.3     1  ZINC000805177769    0.0800
     22 C22        -7.1337    2.6274   52.4858 C.2     1  ZINC000805177769    0.6600
     23 O23        -6.4531    3.2794   51.7188 O.2     1  ZINC000805177769   -0.5600
     24 O24        -7.5558    3.1733   53.6419 O.3     1  ZINC000805177769   -0.3600
     25 C25        -7.1517    4.5418   53.9108 C.3     1  ZINC000805177769    0.1400
     26 C26        -5.6244    4.6243   53.9507 C.3     1  ZINC000805177769   -0.1800
     27 C27        -7.6831    5.4569   52.8058 C.3     1  ZINC000805177769   -0.1400
     28 C28        -7.7219    4.9863   55.2592 C.3     1  ZINC000805177769   -0.1800
     29 C29        -8.8409   -0.6982   52.4171 C.3     1  ZINC000805177769    0.0900
     30 C30       -12.9900   -2.8702   58.6860 C.ar    1  ZINC000805177769   -0.0800
     31 C31       -14.4933   -2.9684   58.6491 C.3     1  ZINC000805177769   -0.1200
     32 C32       -12.3748   -2.0210   59.5865 C.ar    1  ZINC000805177769   -0.1200
     33 H33       -10.1275   -1.5314   61.5259 H       1  ZINC000805177769    0.0700
     34 H34        -9.3850   -0.6429   60.1741 H       1  ZINC000805177769    0.0700
     35 H35       -10.9779   -0.1485   60.7960 H       1  ZINC000805177769    0.0700
     36 H36        -9.1546   -2.6198   58.7805 H       1  ZINC000805177769    0.1200
     37 H37       -10.2504   -4.1376   57.1806 H       1  ZINC000805177769    0.1200
     38 H38       -12.2224   -5.3823   56.6006 H       1  ZINC000805177769    0.0800
     39 H39       -13.8097   -4.9583   57.2854 H       1  ZINC000805177769    0.0900
     40 H40       -13.8387   -5.5594   54.4874 H       1  ZINC000805177769    0.0600
     41 H41       -15.1657   -4.7362   55.3419 H       1  ZINC000805177769    0.0700
     42 H42       -14.5083   -4.0423   53.8403 H       1  ZINC000805177769    0.0600
     43 H43       -11.3431   -4.2822   54.7521 H       1  ZINC000805177769    0.4100
     44 H44       -11.5609    0.4174   53.4565 H       1  ZINC000805177769    0.0900
     45 H45       -10.5896    0.0382   54.9061 H       1  ZINC000805177769    0.0900
     46 H46        -9.9578    1.8969   52.6207 H       1  ZINC000805177769    0.0900
     47 H47        -9.4290    1.9756   54.3334 H       1  ZINC000805177769    0.0900
     48 H48        -7.7454    0.9525   50.1405 H       1  ZINC000805177769    0.0600
     49 H49        -6.0548    1.2093   50.6346 H       1  ZINC000805177769    0.0800
     50 H50        -6.8823   -0.3108   51.0502 H       1  ZINC000805177769    0.0800
     51 H51        -5.2182    4.3075   52.9901 H       1  ZINC000805177769    0.0600
     52 H52        -5.3212    5.6515   54.1526 H       1  ZINC000805177769    0.0700
     53 H53        -5.2458    3.9723   54.7380 H       1  ZINC000805177769    0.0900
     54 H54        -8.7711    5.3982   52.7773 H       1  ZINC000805177769    0.0700
     55 H55        -7.3798    6.4842   53.0076 H       1  ZINC000805177769    0.0800
     56 H56        -7.2768    5.1402   51.8451 H       1  ZINC000805177769    0.0700
     57 H57        -7.3433    4.3344   56.0464 H       1  ZINC000805177769    0.0900
     58 H58        -7.4186    6.0136   55.4610 H       1  ZINC000805177769    0.0700
     59 H59        -8.8099    4.9276   55.2307 H       1  ZINC000805177769    0.0600
     60 H60        -8.1169   -1.5106   52.4775 H       1  ZINC000805177769    0.0900
     61 H61        -9.0902   -0.4876   51.3771 H       1  ZINC000805177769    0.0800
     62 H62       -14.8234   -3.7484   59.3353 H       1  ZINC000805177769    0.0700
     63 H63       -14.9273   -2.0142   58.9479 H       1  ZINC000805177769    0.0700
     64 H64       -14.8167   -3.2137   57.6375 H       1  ZINC000805177769    0.0700
     65 H65       -12.9716   -1.4258   60.2618 H       1  ZINC000805177769    0.1200
@<TRIPOS>BOND
     1     1     2    1
     2     1    33    1
     3     1    34    1
     4     1    35    1
     5     2    32   ar
     6     2     3   ar
     7     3     4   ar
     8     3    36    1
     9     4     5   ar
    10     4    37    1
    11     5     6    1
    12     5    30   ar
    13     6     7    1
    14     6    38    1
    15     6    39    1
    16     7     8    1
    17     7     9    1
    18     7    10    1
    19     9    40    1
    20     9    41    1
    21     9    42    1
    22    10    11   am
    23    10    43    1
    24    11    12    2
    25    11    13    1
    26    13    14    2
    27    13    15   am
    28    15    29    1
    29    15    16    1
    30    16    17    1
    31    16    44    1
    32    16    45    1
    33    17    18    1
    34    17    46    1
    35    17    47    1
    36    18    19    1
    37    18    20    1
    38    18    29    1
    39    20    21    1
    40    20    22   am
    41    21    48    1
    42    21    49    1
    43    21    50    1
    44    22    23    2
    45    22    24    1
    46    24    25    1
    47    25    26    1
    48    25    27    1
    49    25    28    1
    50    26    51    1
    51    26    52    1
    52    26    53    1
    53    27    54    1
    54    27    55    1
    55    27    56    1
    56    28    57    1
    57    28    58    1
    58    28    59    1
    59    29    60    1
    60    29    61    1
    61    30    31    1
    62    30    32   ar
    63    31    62    1
    64    31    63    1
    65    31    64    1
    66    32    65    1
@<TRIPOS>SUBSTRUCTURE
     1 ZINC000805177769        1 TEMP              0 ****  ****    0 ROOT


##########                                Name:    ZINC000451019064
##########                DOCK_Rotatable_Bonds:                   8
##########                         Heavy_Atoms:                  23
##########                    Molecular_Weight:             346.534
##########                DOCK_Rotatable_Bonds:                   8
##########                       Formal_Charge:          -0.0200008
##########                     HBond_Acceptors:                   6
##########                        HBond_Donors:                   1
##########                         Heavy_Atoms:                  23
##########                          Grid_Score:          -32.876640
##########                     Grid_vdw_energy:          -32.565269
##########                      Grid_es_energy:           -0.311372
##########           Internal_energy_repulsive:            8.896770

@<TRIPOS>MOLECULE
ZINC000451019064
 57 58 1 0 0
SMALL
USER_CHARGES


@<TRIPOS>ATOM
      1 C1        -13.8766   -5.0889   56.3429 C.3     1  ZINC000451019064   -0.1500
      2 C2        -12.6823   -4.2320   55.9179 C.3     1  ZINC000451019064    0.0900
      3 H3        -11.7822   -4.5886   56.4185 H       1  ZINC000451019064    0.0700
      4 C4        -12.9376   -2.7724   56.3032 C.3     1  ZINC000451019064    0.0200
      5 N5        -11.8227   -1.9425   55.8243 N.3     1  ZINC000451019064   -0.5400
      6 C6        -12.0009   -0.5401   56.2237 C.3     1  ZINC000451019064    0.0600
      7 C7        -10.7094   -0.0232   56.8607 C.3     1  ZINC000451019064   -0.1300
      8 C8        -10.6578   -0.4514   58.3286 C.3     1  ZINC000451019064    0.1100
      9 N9         -9.8395   -1.6597   58.4563 N.am    1  ZINC000451019064   -1.1200
     10 S10        -9.7671   -2.4617   59.9035 S.o2    1  ZINC000451019064    2.6100
     11 O11       -11.1235   -2.7532   60.2108 O.2     1  ZINC000451019064   -0.9600
     12 O12        -8.8263   -3.5030   59.6804 O.2     1  ZINC000451019064   -0.9500
     13 C13        -9.0998   -1.2391   61.0656 C.3     1  ZINC000451019064   -0.6300
     14 C14       -10.2520   -0.5575   61.8064 C.3     1  ZINC000451019064   -0.1100
     15 C15        -9.6910    0.4992   62.7600 C.3     1  ZINC000451019064   -0.0800
     16 C16       -10.8454    1.2750   63.3976 C.3     1  ZINC000451019064   -0.1200
     17 C17       -10.2845    2.3318   64.3513 C.3     1  ZINC000451019064   -0.1200
     18 C18        -9.4642    1.6468   65.4461 C.3     1  ZINC000451019064   -0.1200
     19 C19        -8.3098    0.8710   64.8086 C.3     1  ZINC000451019064   -0.1200
     20 C20        -8.8708   -0.1858   63.8549 C.3     1  ZINC000451019064   -0.1200
     21 C21       -11.6742   -2.0604   54.3664 C.3     1  ZINC000451019064    0.0200
     22 C22       -11.4318   -3.5271   54.0005 C.3     1  ZINC000451019064    0.0900
     23 H23       -10.4948   -3.8629   54.4447 H       1  ZINC000451019064    0.0700
     24 C24       -11.3553   -3.6682   52.4789 C.3     1  ZINC000451019064   -0.1500
     25 O25       -12.5090   -4.3234   54.5013 O.3     1  ZINC000451019064   -0.3800
     26 H26       -13.6951   -6.1276   56.0668 H       1  ZINC000451019064    0.0700
     27 H27       -14.0091   -5.0175   57.4224 H       1  ZINC000451019064    0.0700
     28 H28       -14.7765   -4.7318   55.8420 H       1  ZINC000451019064    0.0600
     29 H29       -13.8669   -2.4325   55.8462 H       1  ZINC000451019064    0.0400
     30 H30       -13.0130   -2.6902   57.3875 H       1  ZINC000451019064    0.0900
     31 H31       -12.2385    0.0603   55.3456 H       1  ZINC000451019064    0.0400
     32 H32       -12.8155   -0.4683   56.9443 H       1  ZINC000451019064    0.0800
     33 H33        -9.8518   -0.4377   56.3310 H       1  ZINC000451019064    0.0800
     34 H34       -10.6838    1.0648   56.7985 H       1  ZINC000451019064    0.0800
     35 H35       -10.2199    0.3488   58.9254 H       1  ZINC000451019064    0.0800
     36 H36       -11.6679   -0.6575   58.6826 H       1  ZINC000451019064    0.0700
     37 H37        -9.3400   -1.9902   57.6933 H       1  ZINC000451019064    0.4200
     38 H38        -8.4501   -1.7381   61.7848 H       1  ZINC000451019064    0.1300
     39 H39        -8.5274   -0.4910   60.5171 H       1  ZINC000451019064    0.1400
     40 H40       -10.9158   -0.0805   61.0853 H       1  ZINC000451019064    0.0800
     41 H41       -10.8087   -1.3019   62.3758 H       1  ZINC000451019064    0.0800
     42 H42        -9.0534    1.1875   62.2052 H       1  ZINC000451019064    0.0800
     43 H43       -11.4298    1.7631   62.6176 H       1  ZINC000451019064    0.0600
     44 H44       -11.4831    0.5867   63.9523 H       1  ZINC000451019064    0.0700
     45 H45        -9.6468    3.0200   63.7964 H       1  ZINC000451019064    0.0600
     46 H46       -11.1068    2.8845   64.8055 H       1  ZINC000451019064    0.0600
     47 H47        -9.0646    2.3996   66.1255 H       1  ZINC000451019064    0.0600
     48 H48       -10.1018    0.9585   66.0009 H       1  ZINC000451019064    0.0600
     49 H49        -7.6722    1.5592   64.2537 H       1  ZINC000451019064    0.0600
     50 H50        -7.7254    0.3829   65.5886 H       1  ZINC000451019064    0.0600
     51 H51        -9.5084   -0.8741   64.4097 H       1  ZINC000451019064    0.0700
     52 H52        -8.0483   -0.7385   63.4007 H       1  ZINC000451019064    0.0600
     53 H53       -12.5834   -1.7091   53.8785 H       1  ZINC000451019064    0.0400
     54 H54       -10.8275   -1.4583   54.0369 H       1  ZINC000451019064    0.0900
     55 H55       -10.5356   -3.0587   52.0983 H       1  ZINC000451019064    0.0700
     56 H56       -11.1826   -4.7126   52.2191 H       1  ZINC000451019064    0.0700
     57 H57       -12.2931   -3.3336   52.0354 H       1  ZINC000451019064    0.0600
@<TRIPOS>BOND
     1     1     2    1
     2     1    26    1
     3     1    27    1
     4     1    28    1
     5     2     3    1
     6     2    25    1
     7     2     4    1
     8     4     5    1
     9     4    29    1
    10     4    30    1
    11     5     6    1
    12     5    21    1
    13     6     7    1
    14     6    31    1
    15     6    32    1
    16     7     8    1
    17     7    33    1
    18     7    34    1
    19     8     9    1
    20     8    35    1
    21     8    36    1
    22     9    10   am
    23     9    37    1
    24    10    11    2
    25    10    12    2
    26    10    13    1
    27    13    14    1
    28    13    38    1
    29    13    39    1
    30    14    15    1
    31    14    40    1
    32    14    41    1
    33    15    20    1
    34    15    16    1
    35    15    42    1
    36    16    17    1
    37    16    43    1
    38    16    44    1
    39    17    18    1
    40    17    45    1
    41    17    46    1
    42    18    19    1
    43    18    47    1
    44    18    48    1
    45    19    20    1
    46    19    49    1
    47    19    50    1
    48    20    51    1
    49    20    52    1
    50    21    22    1
    51    21    53    1
    52    21    54    1
    53    22    23    1
    54    22    24    1
    55    22    25    1
    56    24    55    1
    57    24    56    1
    58    24    57    1
@<TRIPOS>SUBSTRUCTURE
     1 ZINC000451019064        1 TEMP              0 ****  ****    0 ROOT


##########                                Name:    ZINC001436455587
##########                DOCK_Rotatable_Bonds:                   9
##########                         Heavy_Atoms:                  21
##########                    Molecular_Weight:             378.693
##########                DOCK_Rotatable_Bonds:                   9
##########                       Formal_Charge:          -0.0200001
##########                     HBond_Acceptors:                   5
##########                        HBond_Donors:                   1
##########                         Heavy_Atoms:                  21
##########                          Grid_Score:          -32.845638
##########                     Grid_vdw_energy:          -33.133728
##########                      Grid_es_energy:            0.288089
##########           Internal_energy_repulsive:           14.936954

@<TRIPOS>MOLECULE
ZINC001436455587
 42 42 1 0 0
SMALL
USER_CHARGES


@<TRIPOS>ATOM
      1 C1        -14.0914   -1.3772   50.4674 C.3     1  ZINC001436455587   -0.1500
      2 C2        -13.8402   -0.9649   51.9191 C.3     1  ZINC001436455587   -0.1300
      3 C3        -13.4008   -2.1872   52.7277 C.3     1  ZINC001436455587   -0.1400
      4 C4        -11.9759   -2.5769   52.3292 C.3     1  ZINC001436455587    0.0800
      5 H5        -11.9306   -2.7361   51.2518 H       1  ZINC001436455587    0.0700
      6 C6        -11.5785   -3.8655   53.0522 C.3     1  ZINC001436455587    0.1200
      7 N7        -11.3011   -3.5699   54.4600 N.am    1  ZINC001436455587   -0.7200
      8 C8        -12.0983   -4.0723   55.4237 C.2     1  ZINC001436455587    0.5200
      9 O9        -13.0443   -4.7701   55.1255 O.2     1  ZINC001436455587   -0.5100
     10 C10       -11.8142   -3.7668   56.8718 C.3     1  ZINC001436455587    0.0600
     11 H11       -11.8738   -4.6855   57.4554 H       1  ZINC001436455587    0.1000
     12 C12       -12.8450   -2.7636   57.3932 C.3     1  ZINC001436455587   -0.1800
     13 O13       -10.5039   -3.2098   56.9929 O.3     1  ZINC001436455587   -0.2700
     14 C14       -10.1201   -2.7982   58.2303 C.ar    1  ZINC001436455587    0.1600
     15 C15       -10.0044   -3.7167   59.2626 C.ar    1  ZINC001436455587   -0.2000
     16 C16        -9.6137   -3.2966   60.5198 C.ar    1  ZINC001436455587   -0.0500
     17 C17        -9.3383   -1.9605   60.7495 C.ar    1  ZINC001436455587   -0.0700
     18 Cl18       -8.8483   -1.4356   62.3300 Cl      1  ZINC001436455587   -0.0600
     19 C19        -9.4526   -1.0418   59.7209 C.ar    1  ZINC001436455587   -0.0400
     20 C20        -9.8379   -1.4586   58.4608 C.ar    1  ZINC001436455587   -0.1200
     21 Br21       -9.9941   -0.2031   57.0554 Br      1  ZINC001436455587   -0.0100
     22 O22       -11.0756   -1.5289   52.6942 O.3     1  ZINC001436455587   -0.3800
     23 C23        -9.7299   -1.7424   52.2633 C.3     1  ZINC001436455587    0.0200
     24 H24       -13.1743   -1.7842   50.0413 H       1  ZINC001436455587    0.0500
     25 H25       -14.8744   -2.1349   50.4351 H       1  ZINC001436455587    0.0600
     26 H26       -14.4044   -0.5064   49.8913 H       1  ZINC001436455587    0.0600
     27 H27       -13.0572   -0.2073   51.9515 H       1  ZINC001436455587    0.0600
     28 H28       -14.7573   -0.5580   52.3452 H       1  ZINC001436455587    0.0700
     29 H29       -13.4282   -1.9486   53.7909 H       1  ZINC001436455587    0.0800
     30 H30       -14.0752   -3.0189   52.5244 H       1  ZINC001436455587    0.0800
     31 H31       -12.3941   -4.5856   52.9860 H       1  ZINC001436455587    0.0800
     32 H32       -10.6862   -4.2833   52.5860 H       1  ZINC001436455587    0.0800
     33 H33       -10.5438   -3.0127   54.6986 H       1  ZINC001436455587    0.4000
     34 H34       -12.6394   -2.5426   58.4406 H       1  ZINC001436455587    0.0800
     35 H35       -12.7854   -1.8449   56.8096 H       1  ZINC001436455587    0.0800
     36 H36       -13.8445   -3.1885   57.3009 H       1  ZINC001436455587    0.0800
     37 H37       -10.2198   -4.7598   59.0843 H       1  ZINC001436455587    0.1500
     38 H38        -9.5235   -4.0119   61.3239 H       1  ZINC001436455587    0.1400
     39 H39        -9.2370    0.0008   59.9020 H       1  ZINC001436455587    0.1500
     40 H40        -9.6918   -1.7359   51.1740 H       1  ZINC001436455587    0.0500
     41 H41        -9.0931   -0.9487   52.6540 H       1  ZINC001436455587    0.0900
     42 H42        -9.3785   -2.7055   52.6334 H       1  ZINC001436455587    0.0400
@<TRIPOS>BOND
     1     1     2    1
     2     1    24    1
     3     1    25    1
     4     1    26    1
     5     2     3    1
     6     2    27    1
     7     2    28    1
     8     3     4    1
     9     3    29    1
    10     3    30    1
    11     4     5    1
    12     4     6    1
    13     4    22    1
    14     6     7    1
    15     6    31    1
    16     6    32    1
    17     7     8   am
    18     7    33    1
    19     8     9    2
    20     8    10    1
    21    10    11    1
    22    10    12    1
    23    10    13    1
    24    12    34    1
    25    12    35    1
    26    12    36    1
    27    13    14    1
    28    14    20   ar
    29    14    15   ar
    30    15    16   ar
    31    15    37    1
    32    16    17   ar
    33    16    38    1
    34    17    18    1
    35    17    19   ar
    36    19    20   ar
    37    19    39    1
    38    20    21    1
    39    22    23    1
    40    23    40    1
    41    23    41    1
    42    23    42    1
@<TRIPOS>SUBSTRUCTURE
     1 ZINC001436455587        1 TEMP              0 ****  ****    0 ROOT


##########                                Name:    ZINC001296589646
##########                DOCK_Rotatable_Bonds:                   8
##########                         Heavy_Atoms:                  29
##########                    Molecular_Weight:             398.548
##########                DOCK_Rotatable_Bonds:                   8
##########                       Formal_Charge:          -0.0200008
##########                     HBond_Acceptors:                   6
##########                        HBond_Donors:                   0
##########                         Heavy_Atoms:                  29
##########                          Grid_Score:          -32.831024
##########                     Grid_vdw_energy:          -31.768738
##########                      Grid_es_energy:           -1.062286
##########           Internal_energy_repulsive:           23.751104

@<TRIPOS>MOLECULE
ZINC001296589646
 63 66 1 0 0
SMALL
USER_CHARGES


@<TRIPOS>ATOM
      1 C1        -15.5709   -2.9991   53.9442 C.3     1  ZINC001296589646   -0.1500
      2 C2        -14.1631   -3.0982   54.5350 C.3     1  ZINC001296589646    0.0500
      3 O3        -13.2623   -2.3101   53.7543 O.3     1  ZINC001296589646   -0.3600
      4 C4        -11.8864   -2.6529   53.9319 C.3     1  ZINC001296589646    0.1800
      5 C5        -11.5441   -2.7460   55.3966 C.2     1  ZINC001296589646    0.1500
      6 N6        -11.1005   -3.8005   56.0203 N.2     1  ZINC001296589646   -0.2600
      7 N7        -10.9124   -3.5308   57.2628 N.2     1  ZINC001296589646   -0.3200
      8 C8        -11.2285   -2.2796   57.5003 C.2     1  ZINC001296589646    0.3600
      9 N9        -11.1567   -1.6294   58.7221 N.3     1  ZINC001296589646   -0.4300
     10 C10       -12.3133   -1.9852   59.5833 C.3     1  ZINC001296589646    0.0300
     11 C11       -11.8173   -1.6302   61.0075 C.3     1  ZINC001296589646   -0.1200
     12 C12       -10.3271   -2.0398   60.9668 C.3     1  ZINC001296589646   -0.1000
     13 H13       -10.1964   -3.0346   61.3925 H       1  ZINC001296589646    0.0800
     14 C14        -9.4755   -1.0214   61.7274 C.3     1  ZINC001296589646   -0.1400
     15 C15        -9.9520   -2.0441   59.4732 C.3     1  ZINC001296589646    0.0500
     16 N16       -11.6358   -1.7381   56.3160 N.pl3   1  ZINC001296589646   -0.4600
     17 C17       -12.0872   -0.3644   56.0803 C.3     1  ZINC001296589646    0.1000
     18 C18       -11.0122    0.6145   56.5567 C.3     1  ZINC001296589646   -0.1300
     19 C19       -10.4678    1.3963   55.3595 C.3     1  ZINC001296589646   -0.0500
     20 H20       -10.3432    0.7226   54.5118 H       1  ZINC001296589646    0.0800
     21 C21       -11.4504    2.5084   54.9871 C.3     1  ZINC001296589646   -0.1500
     22 C22        -9.1358    2.0025   55.7192 C.ar    1  ZINC001296589646   -0.0800
     23 C23        -8.1751    2.1893   54.7428 C.ar    1  ZINC001296589646   -0.1100
     24 C24        -6.9533    2.7453   55.0728 C.ar    1  ZINC001296589646   -0.1200
     25 C25        -6.6922    3.1149   56.3790 C.ar    1  ZINC001296589646   -0.1200
     26 C26        -7.6532    2.9289   57.3551 C.ar    1  ZINC001296589646   -0.1200
     27 C27        -8.8767    2.3769   57.0244 C.ar    1  ZINC001296589646   -0.1200
     28 C28       -10.9649   -1.6335   53.2082 C.3     1  ZINC001296589646   -0.1400
     29 C29       -10.9661   -2.2065   51.7685 C.3     1  ZINC001296589646    0.0600
     30 O30       -10.9843   -3.6334   51.9328 O.3     1  ZINC001296589646   -0.3700
     31 C31       -11.5506   -3.9723   53.2041 C.3     1  ZINC001296589646    0.0400
     32 H32       -15.9313   -1.9743   54.0339 H       1  ZINC001296589646    0.0600
     33 H33       -15.5444   -3.2841   52.8925 H       1  ZINC001296589646    0.0700
     34 H34       -16.2400   -3.6682   54.4853 H       1  ZINC001296589646    0.0700
     35 H35       -14.1728   -2.7297   55.5609 H       1  ZINC001296589646    0.0500
     36 H36       -13.8375   -4.1383   54.5258 H       1  ZINC001296589646    0.0600
     37 H37       -13.1868   -1.3887   59.3202 H       1  ZINC001296589646    0.0900
     38 H38       -12.5362   -3.0496   59.5078 H       1  ZINC001296589646    0.0600
     39 H39       -11.9186   -0.5615   61.1960 H       1  ZINC001296589646    0.0800
     40 H40       -12.3557   -2.2082   61.7587 H       1  ZINC001296589646    0.0800
     41 H41        -9.7867   -0.9954   62.7717 H       1  ZINC001296589646    0.0600
     42 H42        -8.4259   -1.3091   61.6682 H       1  ZINC001296589646    0.0600
     43 H43        -9.6073   -0.0343   61.2842 H       1  ZINC001296589646    0.0600
     44 H44        -9.6514   -3.0466   59.1687 H       1  ZINC001296589646    0.0800
     45 H45        -9.1406   -1.3392   59.2921 H       1  ZINC001296589646    0.0900
     46 H46       -12.2655   -0.2182   55.0149 H       1  ZINC001296589646    0.1100
     47 H47       -13.0109   -0.1859   56.6310 H       1  ZINC001296589646    0.1000
     48 H48       -11.4460    1.3083   57.2769 H       1  ZINC001296589646    0.0800
     49 H49       -10.2005    0.0610   57.0288 H       1  ZINC001296589646    0.0700
     50 H50       -11.0625    3.0654   54.1343 H       1  ZINC001296589646    0.0600
     51 H51       -12.4137    2.0699   54.7270 H       1  ZINC001296589646    0.0600
     52 H52       -11.5749    3.1822   55.8348 H       1  ZINC001296589646    0.0600
     53 H53        -8.3791    1.9005   53.7223 H       1  ZINC001296589646    0.1200
     54 H54        -6.2026    2.8906   54.3101 H       1  ZINC001296589646    0.1200
     55 H55        -5.7374    3.5486   56.6368 H       1  ZINC001296589646    0.1200
     56 H56        -7.4491    3.2174   58.3757 H       1  ZINC001296589646    0.1200
     57 H57        -9.6274    2.2316   57.7870 H       1  ZINC001296589646    0.1200
     58 H58       -11.3927   -0.6312   53.2323 H       1  ZINC001296589646    0.1000
     59 H59        -9.9612   -1.6406   53.6330 H       1  ZINC001296589646    0.1000
     60 H60       -11.8547   -1.8762   51.2305 H       1  ZINC001296589646    0.0700
     61 H61       -10.0652   -1.8983   51.2380 H       1  ZINC001296589646    0.0900
     62 H62       -10.8303   -4.5443   53.7891 H       1  ZINC001296589646    0.1000
     63 H63       -12.4592   -4.5568   53.0602 H       1  ZINC001296589646    0.0800
@<TRIPOS>BOND
     1     1     2    1
     2     1    32    1
     3     1    33    1
     4     1    34    1
     5     2     3    1
     6     2    35    1
     7     2    36    1
     8     3     4    1
     9     4    31    1
    10     4     5    1
    11     4    28    1
    12     5    16    1
    13     5     6    2
    14     6     7    1
    15     7     8    2
    16     8     9    1
    17     8    16    1
    18     9    15    1
    19     9    10    1
    20    10    11    1
    21    10    37    1
    22    10    38    1
    23    11    12    1
    24    11    39    1
    25    11    40    1
    26    12    13    1
    27    12    14    1
    28    12    15    1
    29    14    41    1
    30    14    42    1
    31    14    43    1
    32    15    44    1
    33    15    45    1
    34    16    17    1
    35    17    18    1
    36    17    46    1
    37    17    47    1
    38    18    19    1
    39    18    48    1
    40    18    49    1
    41    19    20    1
    42    19    21    1
    43    19    22    1
    44    21    50    1
    45    21    51    1
    46    21    52    1
    47    22    27   ar
    48    22    23   ar
    49    23    24   ar
    50    23    53    1
    51    24    25   ar
    52    24    54    1
    53    25    26   ar
    54    25    55    1
    55    26    27   ar
    56    26    56    1
    57    27    57    1
    58    28    29    1
    59    28    58    1
    60    28    59    1
    61    29    30    1
    62    29    60    1
    63    29    61    1
    64    30    31    1
    65    31    62    1
    66    31    63    1
@<TRIPOS>SUBSTRUCTURE
     1 ZINC001296589646        1 TEMP              0 ****  ****    0 ROOT


##########                                Name:    ZINC000416583757
##########                DOCK_Rotatable_Bonds:                   7
##########                         Heavy_Atoms:                  20
##########                    Molecular_Weight:             380.693
##########                DOCK_Rotatable_Bonds:                   7
##########                       Formal_Charge:         1.04308e-07
##########                     HBond_Acceptors:                   7
##########                        HBond_Donors:                   1
##########                         Heavy_Atoms:                  20
##########                          Grid_Score:          -32.815773
##########                     Grid_vdw_energy:          -29.550983
##########                      Grid_es_energy:           -3.264788
##########           Internal_energy_repulsive:            8.916099

@<TRIPOS>MOLECULE
ZINC000416583757
 35 35 1 0 0
SMALL
USER_CHARGES


@<TRIPOS>ATOM
      1 C1         -3.7489    1.5976   65.6383 C.3     1  ZINC000416583757   -0.1500
      2 C2         -5.1270    1.3033   66.2341 C.3     1  ZINC000416583757   -0.0200
      3 H3         -5.2349    0.2294   66.3869 H       1  ZINC000416583757    0.1200
      4 C4         -5.2623    1.9986   67.5245 C.1     1  ZINC000416583757    0.2100
      5 N5         -5.3666    2.5352   68.5203 N.1     1  ZINC000416583757   -0.4200
      6 C6         -6.2129    1.7935   65.2743 C.3     1  ZINC000416583757    0.1300
      7 N7         -7.5079    1.7900   65.9594 N.am    1  ZINC000416583757   -1.0100
      8 C8         -8.0415    3.0322   66.5236 C.3     1  ZINC000416583757    0.0800
      9 S9         -8.3684    0.3817   66.0963 S.o2    1  ZINC000416583757    2.7800
     10 O10        -7.4898   -0.5701   66.6807 O.2     1  ZINC000416583757   -0.9700
     11 O11        -9.6233    0.7318   66.6634 O.2     1  ZINC000416583757   -0.9700
     12 N12        -8.6819   -0.1525   64.5605 N.am    1  ZINC000416583757   -1.1300
     13 C13        -9.4506    0.6849   63.6364 C.3     1  ZINC000416583757    0.1600
     14 C14       -10.2482   -0.1936   62.7075 C.ar    1  ZINC000416583757   -0.0800
     15 C15       -11.6245   -0.2492   62.8213 C.ar    1  ZINC000416583757   -0.0800
     16 C16       -12.3574   -1.0554   61.9682 C.ar    1  ZINC000416583757   -0.0300
     17 Cl17      -14.0862   -1.1248   62.1108 Cl      1  ZINC000416583757   -0.0500
     18 C18       -11.7124   -1.8055   61.0016 C.ar    1  ZINC000416583757   -0.0700
     19 C19       -10.3349   -1.7493   60.8882 C.ar    1  ZINC000416583757   -0.0800
     20 Br20       -9.4522   -2.7744   59.5669 Br      1  ZINC000416583757   -0.0300
     21 C21        -9.6038   -0.9392   61.7380 C.ar    1  ZINC000416583757   -0.0700
     22 H22        -2.9779    1.3609   66.3715 H       1  ZINC000416583757    0.0700
     23 H23        -3.6012    0.9889   64.7462 H       1  ZINC000416583757    0.0800
     24 H24        -3.6857    2.6529   65.3725 H       1  ZINC000416583757    0.0700
     25 H25        -5.9780    2.8062   64.9465 H       1  ZINC000416583757    0.0900
     26 H26        -6.2580    1.1327   64.4087 H       1  ZINC000416583757    0.1000
     27 H27        -8.6455    3.5421   65.7731 H       1  ZINC000416583757    0.0700
     28 H28        -8.6591    2.8013   67.3916 H       1  ZINC000416583757    0.0800
     29 H29        -7.2168    3.6777   66.8260 H       1  ZINC000416583757    0.0800
     30 H30        -8.3566   -1.0198   64.2729 H       1  ZINC000416583757    0.4200
     31 H31       -10.1279    1.3241   64.2029 H       1  ZINC000416583757    0.0800
     32 H32        -8.7684    1.3044   63.0542 H       1  ZINC000416583757    0.1000
     33 H33       -12.1279    0.3363   63.5763 H       1  ZINC000416583757    0.1500
     34 H34       -12.2839   -2.4351   60.3357 H       1  ZINC000416583757    0.1500
     35 H35        -8.5282   -0.8953   61.6495 H       1  ZINC000416583757    0.1400
@<TRIPOS>BOND
     1     1     2    1
     2     1    22    1
     3     1    23    1
     4     1    24    1
     5     2     3    1
     6     2     4    1
     7     2     6    1
     8     4     5    3
     9     6     7    1
    10     6    25    1
    11     6    26    1
    12     7     8    1
    13     7     9   am
    14     8    27    1
    15     8    28    1
    16     8    29    1
    17     9    10    2
    18     9    11    2
    19     9    12   am
    20    12    13    1
    21    12    30    1
    22    13    14    1
    23    13    31    1
    24    13    32    1
    25    14    21   ar
    26    14    15   ar
    27    15    16   ar
    28    15    33    1
    29    16    17    1
    30    16    18   ar
    31    18    19   ar
    32    18    34    1
    33    19    20    1
    34    19    21   ar
    35    21    35    1
@<TRIPOS>SUBSTRUCTURE
     1 ZINC000416583757        1 TEMP              0 ****  ****    0 ROOT


##########                                Name:    ZINC000740930783
##########                DOCK_Rotatable_Bonds:                  11
##########                         Heavy_Atoms:                  27
##########                    Molecular_Weight:             413.257
##########                DOCK_Rotatable_Bonds:                  11
##########                       Formal_Charge:          -0.0100004
##########                     HBond_Acceptors:                   9
##########                        HBond_Donors:                   4
##########                         Heavy_Atoms:                  27
##########                          Grid_Score:          -32.806652
##########                     Grid_vdw_energy:          -29.158058
##########                      Grid_es_energy:           -3.648593
##########           Internal_energy_repulsive:            9.656432

@<TRIPOS>MOLECULE
ZINC000740930783
 45 46 1 0 0
SMALL
USER_CHARGES


@<TRIPOS>ATOM
      1 C1        -12.9080    2.4504   60.4010 C.3     1  ZINC000740930783    0.0200
      2 O2        -12.9604    1.1078   59.9144 O.3     1  ZINC000740930783   -0.3000
      3 C3        -11.7723    0.4795   59.7063 C.ar    1  ZINC000740930783    0.1200
      4 C4        -10.8973    0.9565   58.7498 C.ar    1  ZINC000740930783   -0.1400
      5 C5         -9.6768    0.3093   58.5384 C.ar    1  ZINC000740930783   -0.0800
      6 C6         -8.7383    0.8154   57.5177 C.2     1  ZINC000740930783    0.5600
      7 O7         -8.7044    0.3030   56.4157 O.2     1  ZINC000740930783   -0.5300
      8 N8         -7.9189    1.8456   57.8075 N.am    1  ZINC000740930783   -0.7200
      9 C9         -6.9862    2.3468   56.7950 C.3     1  ZINC000740930783    0.0900
     10 C10        -5.7369    2.9014   57.4825 C.3     1  ZINC000740930783    0.1400
     11 H11        -5.4325    2.2265   58.2824 H       1  ZINC000740930783    0.1200
     12 O12        -6.0266    4.1891   58.0302 O.3     1  ZINC000740930783   -0.5500
     13 C13        -4.6218    3.0228   56.4761 C.ar    1  ZINC000740930783   -0.1100
     14 C14        -4.9110    3.3068   55.1550 C.ar    1  ZINC000740930783   -0.1000
     15 C15        -3.8880    3.4183   54.2316 C.ar    1  ZINC000740930783   -0.1100
     16 C16        -2.5756    3.2451   54.6291 C.ar    1  ZINC000740930783   -0.1000
     17 C17        -2.2850    2.9609   55.9503 C.ar    1  ZINC000740930783   -0.1100
     18 C18        -3.3076    2.8555   56.8758 C.ar    1  ZINC000740930783   -0.0300
     19 Cl19       -2.9436    2.4986   58.5353 Cl      1  ZINC000740930783   -0.0600
     20 C20        -9.3467   -0.8174   59.2952 C.ar    1  ZINC000740930783   -0.1000
     21 C21       -10.2248   -1.2887   60.2488 C.ar    1  ZINC000740930783   -0.0200
     22 Cl22       -9.8130   -2.6887   61.1890 Cl      1  ZINC000740930783   -0.0300
     23 C23       -11.4353   -0.6420   60.4622 C.ar    1  ZINC000740930783    0.0900
     24 O24       -12.2969   -1.1095   61.4023 O.3     1  ZINC000740930783   -0.2900
     25 C25       -12.3034   -0.4420   62.6657 C.3     1  ZINC000740930783    0.0400
     26 C26       -13.6090   -0.7102   63.3690 C.2     1  ZINC000740930783    0.5200
     27 N27       -14.1583    0.2371   64.1547 N.am    1  ZINC000740930783   -0.8500
     28 O28       -14.1653   -1.7786   63.2280 O.2     1  ZINC000740930783   -0.5100
     29 H29       -12.3947    2.4686   61.3624 H       1  ZINC000740930783    0.0600
     30 H30       -12.3676    3.0741   59.6889 H       1  ZINC000740930783    0.0600
     31 H31       -13.9215    2.8326   60.5229 H       1  ZINC000740930783    0.1100
     32 H32       -11.1559    1.8276   58.1661 H       1  ZINC000740930783    0.1600
     33 H33        -7.9468    2.2551   58.6863 H       1  ZINC000740930783    0.4100
     34 H34        -6.7026    1.5329   56.1277 H       1  ZINC000740930783    0.0900
     35 H35        -7.4658    3.1384   56.2193 H       1  ZINC000740930783    0.0800
     36 H36        -6.6306    4.1686   58.7851 H       1  ZINC000740930783    0.3800
     37 H37        -5.9363    3.4415   54.8437 H       1  ZINC000740930783    0.1300
     38 H38        -4.1145    3.6402   53.1992 H       1  ZINC000740930783    0.1300
     39 H39        -1.7769    3.3315   53.9072 H       1  ZINC000740930783    0.1400
     40 H40        -1.2594    2.8257   56.2607 H       1  ZINC000740930783    0.1400
     41 H41        -8.4044   -1.3195   59.1335 H       1  ZINC000740930783    0.1500
     42 H42       -11.4793   -0.8114   63.2761 H       1  ZINC000740930783    0.0900
     43 H43       -12.1880    0.6308   62.5105 H       1  ZINC000740930783    0.0900
     44 H44       -14.9991    0.0649   64.6065 H       1  ZINC000740930783    0.4000
     45 H45       -13.7125    1.0911   64.2685 H       1  ZINC000740930783    0.4100
@<TRIPOS>BOND
     1     1     2    1
     2     1    29    1
     3     1    30    1
     4     1    31    1
     5     2     3    1
     6     3    23   ar
     7     3     4   ar
     8     4     5   ar
     9     4    32    1
    10     5     6    1
    11     5    20   ar
    12     6     7    2
    13     6     8   am
    14     8     9    1
    15     8    33    1
    16     9    10    1
    17     9    34    1
    18     9    35    1
    19    10    11    1
    20    10    12    1
    21    10    13    1
    22    12    36    1
    23    13    18   ar
    24    13    14   ar
    25    14    15   ar
    26    14    37    1
    27    15    16   ar
    28    15    38    1
    29    16    17   ar
    30    16    39    1
    31    17    18   ar
    32    17    40    1
    33    18    19    1
    34    20    21   ar
    35    20    41    1
    36    21    22    1
    37    21    23   ar
    38    23    24    1
    39    24    25    1
    40    25    26    1
    41    25    42    1
    42    25    43    1
    43    26    27   am
    44    26    28    2
    45    27    44    1
    46    27    45    1
@<TRIPOS>SUBSTRUCTURE
     1 ZINC000740930783        1 TEMP              0 ****  ****    0 ROOT


##########                                Name:    ZINC000751548479
##########                DOCK_Rotatable_Bonds:                   9
##########                         Heavy_Atoms:                  27
##########                    Molecular_Weight:             389.407
##########                DOCK_Rotatable_Bonds:                   9
##########                       Formal_Charge:           0.0199995
##########                     HBond_Acceptors:                   9
##########                        HBond_Donors:                   2
##########                         Heavy_Atoms:                  27
##########                          Grid_Score:          -32.793209
##########                     Grid_vdw_energy:          -31.471420
##########                      Grid_es_energy:           -1.321787
##########           Internal_energy_repulsive:           19.054556

@<TRIPOS>MOLECULE
ZINC000751548479
 43 44 1 0 0
SMALL
USER_CHARGES


@<TRIPOS>ATOM
      1 C1          2.6797    3.9067   47.1646 C.3     1  ZINC000751548479   -0.1600
      2 C2          1.4584    3.3162   47.8722 C.3     1  ZINC000751548479    0.0800
      3 O3          0.4284    4.3328   47.9893 O.3     1  ZINC000751548479   -0.3600
      4 C4         -0.7134    3.9777   48.6084 C.2     1  ZINC000751548479    0.6500
      5 O5         -1.6192    4.7801   48.7195 O.2     1  ZINC000751548479   -0.5400
      6 N6         -0.8515    2.7324   49.1049 N.am    1  ZINC000751548479   -0.6500
      7 C7         -2.0356    2.3641   49.7470 C.ar    1  ZINC000751548479    0.2000
      8 C8         -2.1824    2.5758   51.1102 C.ar    1  ZINC000751548479   -0.1000
      9 C9         -3.3523    2.2123   51.7465 C.ar    1  ZINC000751548479   -0.1000
     10 C10        -4.3918    1.6317   51.0278 C.ar    1  ZINC000751548479    0.1300
     11 N11        -5.5736    1.2662   51.6818 N.am    1  ZINC000751548479   -1.0500
     12 S12        -6.7794    0.4986   50.8457 S.o2    1  ZINC000751548479    2.6800
     13 O13        -7.2725    1.4375   49.9000 O.2     1  ZINC000751548479   -0.9500
     14 O14        -6.2666   -0.7755   50.4811 O.2     1  ZINC000751548479   -0.9400
     15 C15        -8.0930    0.1997   51.9815 C.2     1  ZINC000751548479   -0.7500
     16 C16        -8.7824   -0.9308   51.9150 C.2     1  ZINC000751548479    0.0700
     17 C17        -9.8830   -1.1823   52.8688 C.ar    1  ZINC000751548479   -0.1100
     18 C18       -10.1684   -0.2525   53.8697 C.ar    1  ZINC000751548479   -0.0600
     19 C19       -11.1969   -0.4919   54.7570 C.ar    1  ZINC000751548479   -0.1600
     20 C20       -11.9460   -1.6533   54.6562 C.ar    1  ZINC000751548479    0.1200
     21 F21       -12.9521   -1.8831   55.5280 F       1  ZINC000751548479   -0.1300
     22 C22       -11.6672   -2.5795   53.6639 C.ar    1  ZINC000751548479   -0.1600
     23 C23       -10.6443   -2.3475   52.7682 C.ar    1  ZINC000751548479   -0.0500
     24 C24        -4.2604    1.4149   49.6663 C.ar    1  ZINC000751548479   -0.0600
     25 C25        -3.0820    1.7843   49.0144 C.ar    1  ZINC000751548479   -0.0300
     26 C26        -2.9389    1.5638   47.6068 C.1     1  ZINC000751548479    0.2500
     27 N27        -2.8254    1.3888   46.4901 N.1     1  ZINC000751548479   -0.4000
     28 H28         3.0631    4.7476   47.7425 H       1  ZINC000751548479    0.0700
     29 H29         3.4529    3.1435   47.0768 H       1  ZINC000751548479    0.0900
     30 H30         2.3931    4.2496   46.1704 H       1  ZINC000751548479    0.0700
     31 H31         1.0751    2.4752   47.2944 H       1  ZINC000751548479    0.0800
     32 H32         1.7450    2.9732   48.8664 H       1  ZINC000751548479    0.0800
     33 H33        -0.1285    2.0920   49.0162 H       1  ZINC000751548479    0.4200
     34 H34        -1.3793    3.0258   51.6750 H       1  ZINC000751548479    0.1600
     35 H35        -3.4608    2.3792   52.8081 H       1  ZINC000751548479    0.1700
     36 H36        -5.6867    1.4627   52.6250 H       1  ZINC000751548479    0.4300
     37 H37        -8.3365    0.9374   52.7316 H       1  ZINC000751548479    0.1700
     38 H38        -8.5397   -1.6679   51.1639 H       1  ZINC000751548479    0.1500
     39 H39        -9.5846    0.6526   53.9495 H       1  ZINC000751548479    0.1400
     40 H40       -11.4185    0.2270   55.5319 H       1  ZINC000751548479    0.1400
     41 H41       -12.2543   -3.4829   53.5895 H       1  ZINC000751548479    0.1400
     42 H42       -10.4279   -3.0698   51.9951 H       1  ZINC000751548479    0.1400
     43 H43        -5.0685    0.9640   49.1096 H       1  ZINC000751548479    0.1500
@<TRIPOS>BOND
     1     1     2    1
     2     1    28    1
     3     1    29    1
     4     1    30    1
     5     2     3    1
     6     2    31    1
     7     2    32    1
     8     3     4    1
     9     4     5    2
    10     4     6   am
    11     6     7    1
    12     6    33    1
    13     7    25   ar
    14     7     8   ar
    15     8     9   ar
    16     8    34    1
    17     9    10   ar
    18     9    35    1
    19    10    11    1
    20    10    24   ar
    21    11    12   am
    22    11    36    1
    23    12    13    2
    24    12    14    2
    25    12    15    1
    26    15    16    2
    27    15    37    1
    28    16    17    1
    29    16    38    1
    30    17    23   ar
    31    17    18   ar
    32    18    19   ar
    33    18    39    1
    34    19    20   ar
    35    19    40    1
    36    20    21    1
    37    20    22   ar
    38    22    23   ar
    39    22    41    1
    40    23    42    1
    41    24    25   ar
    42    24    43    1
    43    25    26    1
    44    26    27    3
@<TRIPOS>SUBSTRUCTURE
     1 ZINC000751548479        1 TEMP              0 ****  ****    0 ROOT


##########                                Name:    ZINC000742270208
##########                DOCK_Rotatable_Bonds:                   5
##########                         Heavy_Atoms:                  25
##########                    Molecular_Weight:             376.328
##########                DOCK_Rotatable_Bonds:                   5
##########                       Formal_Charge:                0.02
##########                     HBond_Acceptors:                   9
##########                        HBond_Donors:                   0
##########                         Heavy_Atoms:                  25
##########                          Grid_Score:          -32.786659
##########                     Grid_vdw_energy:          -32.775196
##########                      Grid_es_energy:           -0.011464
##########           Internal_energy_repulsive:            9.208573

@<TRIPOS>MOLECULE
ZINC000742270208
 37 38 1 0 0
SMALL
USER_CHARGES


@<TRIPOS>ATOM
      1 C1        -11.6357   -4.2965   52.9290 C.3     1  ZINC000742270208   -0.1400
      2 C2        -12.3188   -3.1143   53.6195 C.3     1  ZINC000742270208   -0.1400
      3 C3        -13.5219   -2.6640   52.7885 C.3     1  ZINC000742270208   -0.1400
      4 C4        -12.7836   -3.5334   54.9903 C.2     1  ZINC000742270208    0.4000
      5 O5        -13.8871   -4.0146   55.1356 O.2     1  ZINC000742270208   -0.4300
      6 C6        -11.8983   -3.3588   56.1528 C.ar    1  ZINC000742270208   -0.1000
      7 C7        -11.3977   -2.0924   56.4712 C.ar    1  ZINC000742270208   -0.0900
      8 C8        -10.5686   -1.9369   57.5620 C.ar    1  ZINC000742270208   -0.0200
      9 C9        -10.2314   -3.0302   58.3408 C.ar    1  ZINC000742270208   -0.6800
     10 S10        -9.1714   -2.8211   59.7326 S.o2    1  ZINC000742270208    2.6600
     11 O11        -8.4219   -4.0226   59.8503 O.2     1  ZINC000742270208   -0.9300
     12 O12        -8.5708   -1.5411   59.5909 O.2     1  ZINC000742270208   -0.9000
     13 O13       -10.0584   -2.7453   60.9672 O.3     1  ZINC000742270208   -0.6400
     14 C14       -10.3557   -1.4769   61.3578 C.ar    1  ZINC000742270208    0.0500
     15 C15        -9.5298   -0.8145   62.2554 C.ar    1  ZINC000742270208    0.0900
     16 F16        -8.4296   -1.4293   62.7420 F       1  ZINC000742270208   -0.0900
     17 C17        -9.8343    0.4777   62.6516 C.ar    1  ZINC000742270208    0.1100
     18 F18        -9.0307    1.1228   63.5252 F       1  ZINC000742270208   -0.1000
     19 C19       -10.9610    1.1084   62.1525 C.ar    1  ZINC000742270208   -0.1100
     20 C20       -11.7862    0.4492   61.2574 C.ar    1  ZINC000742270208    0.1200
     21 F21       -12.8853    1.0668   60.7718 F       1  ZINC000742270208   -0.1000
     22 C22       -11.4824   -0.8410   60.8547 C.ar    1  ZINC000742270208    0.1200
     23 F23       -12.2878   -1.4837   59.9809 F       1  ZINC000742270208   -0.0900
     24 C24       -10.7228   -4.2868   58.0324 C.ar    1  ZINC000742270208   -0.0300
     25 C25       -11.5579   -4.4575   56.9484 C.ar    1  ZINC000742270208   -0.0800
     26 H26       -11.2995   -3.9934   51.9374 H       1  ZINC000742270208    0.0700
     27 H27       -10.7787   -4.6173   53.5210 H       1  ZINC000742270208    0.0600
     28 H28       -12.3426   -5.1211   52.8366 H       1  ZINC000742270208    0.0600
     29 H29       -11.6120   -2.2897   53.7119 H       1  ZINC000742270208    0.1000
     30 H30       -14.2287   -3.4886   52.6961 H       1  ZINC000742270208    0.0700
     31 H31       -14.0086   -1.8218   53.2804 H       1  ZINC000742270208    0.0600
     32 H32       -13.1857   -2.3609   51.7969 H       1  ZINC000742270208    0.0700
     33 H33       -11.6594   -1.2384   55.8640 H       1  ZINC000742270208    0.1500
     34 H34       -10.1813   -0.9595   57.8091 H       1  ZINC000742270208    0.1500
     35 H35       -11.1968    2.1159   62.4620 H       1  ZINC000742270208    0.1900
     36 H36       -10.4551   -5.1350   58.6448 H       1  ZINC000742270208    0.1500
     37 H37       -11.9405   -5.4387   56.7090 H       1  ZINC000742270208    0.1500
@<TRIPOS>BOND
     1     1     2    1
     2     1    26    1
     3     1    27    1
     4     1    28    1
     5     2     3    1
     6     2     4    1
     7     2    29    1
     8     3    30    1
     9     3    31    1
    10     3    32    1
    11     4     5    2
    12     4     6    1
    13     6    25   ar
    14     6     7   ar
    15     7     8   ar
    16     7    33    1
    17     8     9   ar
    18     8    34    1
    19     9    10    1
    20     9    24   ar
    21    10    11    2
    22    10    12    2
    23    10    13    1
    24    13    14    1
    25    14    22   ar
    26    14    15   ar
    27    15    16    1
    28    15    17   ar
    29    17    18    1
    30    17    19   ar
    31    19    20   ar
    32    19    35    1
    33    20    21    1
    34    20    22   ar
    35    22    23    1
    36    24    25   ar
    37    24    36    1
    38    25    37    1
@<TRIPOS>SUBSTRUCTURE
     1 ZINC000742270208        1 TEMP              0 ****  ****    0 ROOT


##########                                Name:    ZINC000186105981
##########                DOCK_Rotatable_Bonds:                   6
##########                         Heavy_Atoms:                  26
##########                    Molecular_Weight:             396.873
##########                DOCK_Rotatable_Bonds:                   6
##########                       Formal_Charge:          -0.0400003
##########                     HBond_Acceptors:                   9
##########                        HBond_Donors:                   1
##########                         Heavy_Atoms:                  26
##########                          Grid_Score:          -32.784481
##########                     Grid_vdw_energy:          -32.556572
##########                      Grid_es_energy:           -0.227911
##########           Internal_energy_repulsive:           15.953758

@<TRIPOS>MOLECULE
ZINC000186105981
 44 46 1 0 0
SMALL
USER_CHARGES


@<TRIPOS>ATOM
      1 C1        -14.6001   -4.2707   54.8828 C.3     1  ZINC000186105981   -0.1400
      2 C2        -13.8152   -3.5463   55.9782 C.3     1  ZINC000186105981   -0.1100
      3 C3        -14.1800   -4.1362   57.3420 C.3     1  ZINC000186105981   -0.1600
      4 C4        -12.3154   -3.7214   55.7317 C.3     1  ZINC000186105981    0.1600
      5 H5        -12.0798   -4.7835   55.6644 H       1  ZINC000186105981    0.1200
      6 C6        -11.5439   -3.1069   56.8711 C.2     1  ZINC000186105981    0.4900
      7 O7        -10.5682   -3.6723   57.3175 O.2     1  ZINC000186105981   -0.4300
      8 N8        -11.9382   -1.9290   57.3942 N.am    1  ZINC000186105981   -0.6300
      9 C9        -11.2268   -1.3623   58.4449 C.2     1  ZINC000186105981    0.2400
     10 N10       -10.0430   -0.8242   58.3678 N.2     1  ZINC000186105981   -0.2600
     11 N11        -9.5423   -0.3540   59.4254 N.2     1  ZINC000186105981   -0.2000
     12 C12       -10.2462   -0.4406   60.5192 C.2     1  ZINC000186105981    0.0300
     13 C13        -9.8428    0.0468   61.8550 C.ar    1  ZINC000186105981   -0.0500
     14 C14        -9.0671   -0.7597   62.6919 C.ar    1  ZINC000186105981    0.1300
     15 F15        -8.6830   -1.9887   62.2826 F       1  ZINC000186105981   -0.1200
     16 C16        -8.6936   -0.2966   63.9395 C.ar    1  ZINC000186105981   -0.1400
     17 C17        -9.0857    0.9614   64.3594 C.ar    1  ZINC000186105981   -0.0600
     18 C18        -9.8542    1.7648   63.5357 C.ar    1  ZINC000186105981   -0.1200
     19 C19       -10.2302    1.3181   62.2845 C.ar    1  ZINC000186105981    0.0200
     20 Cl20      -11.1938    2.3287   61.2532 Cl      1  ZINC000186105981   -0.0100
     21 S21       -11.7696   -1.2366   60.1193 S.3     1  ZINC000186105981    0.1200
     22 N22       -11.9459   -3.0588   54.4784 N.am    1  ZINC000186105981   -0.6100
     23 C23       -11.6257   -1.6314   54.3595 C.3     1  ZINC000186105981    0.1000
     24 C24       -10.8935   -1.4847   53.0072 C.3     1  ZINC000186105981   -0.1300
     25 C25       -11.4428   -2.6956   52.2181 C.3     1  ZINC000186105981   -0.1600
     26 C26       -11.8510   -3.6812   53.2907 C.2     1  ZINC000186105981    0.5200
     27 O27       -12.0681   -4.8598   53.1049 O.2     1  ZINC000186105981   -0.5000
     28 H28       -15.6685   -4.1460   55.0585 H       1  ZINC000186105981    0.0600
     29 H29       -14.3402   -3.8505   53.9112 H       1  ZINC000186105981    0.0600
     30 H30       -14.3507   -5.3317   54.8982 H       1  ZINC000186105981    0.0600
     31 H31       -14.0646   -2.4854   55.9628 H       1  ZINC000186105981    0.0900
     32 H32       -13.8458   -5.1726   57.3908 H       1  ZINC000186105981    0.0600
     33 H33       -13.6935   -3.5601   58.1291 H       1  ZINC000186105981    0.0600
     34 H34       -15.2608   -4.0963   57.4778 H       1  ZINC000186105981    0.0700
     35 H35       -12.7186   -1.4768   57.0371 H       1  ZINC000186105981    0.4200
     36 H36        -8.0944   -0.9185   64.5880 H       1  ZINC000186105981    0.1500
     37 H37        -8.7910    1.3183   65.3351 H       1  ZINC000186105981    0.1500
     38 H38       -10.1570    2.7460   63.8706 H       1  ZINC000186105981    0.1500
     39 H39       -12.5403   -1.0385   54.3595 H       1  ZINC000186105981    0.0700
     40 H40       -10.9745   -1.3216   55.1768 H       1  ZINC000186105981    0.0800
     41 H41       -11.1602   -0.5474   52.5189 H       1  ZINC000186105981    0.0900
     42 H42        -9.8141   -1.5613   53.1378 H       1  ZINC000186105981    0.0800
     43 H43       -12.3036   -2.4011   51.6177 H       1  ZINC000186105981    0.1100
     44 H44       -10.6646   -3.1241   51.5864 H       1  ZINC000186105981    0.1000
@<TRIPOS>BOND
     1     1     2    1
     2     1    28    1
     3     1    29    1
     4     1    30    1
     5     2     3    1
     6     2     4    1
     7     2    31    1
     8     3    32    1
     9     3    33    1
    10     3    34    1
    11     4     5    1
    12     4     6    1
    13     4    22    1
    14     6     7    2
    15     6     8   am
    16     8     9    1
    17     8    35    1
    18     9    21    1
    19     9    10    2
    20    10    11    1
    21    11    12    2
    22    12    13    1
    23    12    21    1
    24    13    19   ar
    25    13    14   ar
    26    14    15    1
    27    14    16   ar
    28    16    17   ar
    29    16    36    1
    30    17    18   ar
    31    17    37    1
    32    18    19   ar
    33    18    38    1
    34    19    20    1
    35    22    26   am
    36    22    23    1
    37    23    24    1
    38    23    39    1
    39    23    40    1
    40    24    25    1
    41    24    41    1
    42    24    42    1
    43    25    26    1
    44    25    43    1
    45    25    44    1
    46    26    27    2
@<TRIPOS>SUBSTRUCTURE
     1 ZINC000186105981        1 TEMP              0 ****  ****    0 ROOT


##########                                Name:    ZINC000081577146
##########                DOCK_Rotatable_Bonds:                   4
##########                         Heavy_Atoms:                  25
##########                    Molecular_Weight:             355.464
##########                DOCK_Rotatable_Bonds:                   4
##########                       Formal_Charge:                0.02
##########                     HBond_Acceptors:                   7
##########                        HBond_Donors:                   0
##########                         Heavy_Atoms:                  25
##########                          Grid_Score:          -32.783863
##########                     Grid_vdw_energy:          -33.330566
##########                      Grid_es_energy:            0.546703
##########           Internal_energy_repulsive:           12.004766

@<TRIPOS>MOLECULE
ZINC000081577146
 46 49 1 0 0
SMALL
USER_CHARGES


@<TRIPOS>ATOM
      1 C1         -9.3516    0.3602   63.1023 C.3     1  ZINC000081577146   -0.0700
      2 C2         -9.3674   -0.6912   62.0228 C.2     1  ZINC000081577146    0.2900
      3 N3         -8.8420   -1.8650   62.2211 N.2     1  ZINC000081577146   -0.4800
      4 S4         -9.0732   -2.7250   60.7736 S.3     1  ZINC000081577146    0.1900
      5 C5         -9.8786   -1.4299   59.9716 C.2     1  ZINC000081577146    0.2700
      6 N6        -10.3810   -1.4201   58.6829 N.3     1  ZINC000081577146   -0.4300
      7 C7        -11.6402   -0.6657   58.6144 C.3     1  ZINC000081577146    0.0700
      8 C8        -12.1206   -0.6110   57.1623 C.3     1  ZINC000081577146    0.0500
      9 N9        -12.3015   -1.9790   56.6570 N.3     1  ZINC000081577146   -0.5200
     10 C10       -12.8350   -1.9685   55.2884 C.3     1  ZINC000081577146    0.1900
     11 H11       -13.4230   -1.0637   55.1345 H       1  ZINC000081577146    0.0700
     12 C12       -13.7236   -3.1962   55.0780 C.3     1  ZINC000081577146   -0.1500
     13 C13       -11.6942   -1.9996   54.3042 C.2     1  ZINC000081577146    0.1900
     14 N14       -11.3614   -3.0194   53.5635 N.2     1  ZINC000081577146   -0.4500
     15 C15       -10.3016   -2.6839   52.8128 C.2     1  ZINC000081577146   -0.0200
     16 C16        -9.9777   -1.4001   53.1136 C.2     1  ZINC000081577146    0.0000
     17 C17        -8.8735   -0.6100   52.5292 C.ar    1  ZINC000081577146   -0.0200
     18 C18        -8.6854    0.7197   52.9095 C.ar    1  ZINC000081577146   -0.1000
     19 C19        -7.6526    1.4514   52.3606 C.ar    1  ZINC000081577146   -0.1200
     20 C20        -6.8046    0.8701   51.4348 C.ar    1  ZINC000081577146   -0.1100
     21 C21        -6.9859   -0.4473   51.0532 C.ar    1  ZINC000081577146   -0.1100
     22 C22        -8.0110   -1.1920   51.5990 C.ar    1  ZINC000081577146   -0.0900
     23 O23       -10.8622   -0.9816   54.0455 O.3     1  ZINC000081577146   -0.2000
     24 C24       -11.0422   -2.7335   56.7256 C.3     1  ZINC000081577146    0.0600
     25 C25       -10.5618   -2.7881   58.1777 C.3     1  ZINC000081577146    0.0500
     26 N26        -9.9165   -0.4540   60.8541 N.2     1  ZINC000081577146   -0.5400
     27 H27       -10.2481    0.2655   63.7149 H       1  ZINC000081577146    0.0900
     28 H28        -8.4687    0.2261   63.7273 H       1  ZINC000081577146    0.0900
     29 H29        -9.3266    1.3496   62.6455 H       1  ZINC000081577146    0.0900
     30 H30       -12.3936   -1.1591   59.2284 H       1  ZINC000081577146    0.0700
     31 H31       -11.4775    0.3475   58.9820 H       1  ZINC000081577146    0.1100
     32 H32       -13.0694   -0.0767   57.1130 H       1  ZINC000081577146    0.1000
     33 H33       -11.3794   -0.0934   56.5533 H       1  ZINC000081577146    0.0600
     34 H34       -13.1356   -4.1009   55.2318 H       1  ZINC000081577146    0.0800
     35 H35       -14.5487   -3.1737   55.7898 H       1  ZINC000081577146    0.0800
     36 H36       -14.1194   -3.1884   54.0625 H       1  ZINC000081577146    0.0700
     37 H37        -9.7978   -3.3191   52.0993 H       1  ZINC000081577146    0.1900
     38 H38        -9.3471    1.1749   53.6316 H       1  ZINC000081577146    0.1300
     39 H39        -7.5060    2.4805   52.6540 H       1  ZINC000081577146    0.1300
     40 H40        -5.9979    1.4474   51.0079 H       1  ZINC000081577146    0.1300
     41 H41        -6.3208   -0.8950   50.3294 H       1  ZINC000081577146    0.1300
     42 H42        -8.1511   -2.2205   51.3006 H       1  ZINC000081577146    0.1300
     43 H43       -11.2048   -3.7466   56.3579 H       1  ZINC000081577146    0.0900
     44 H44       -10.2887   -2.2400   56.1116 H       1  ZINC000081577146    0.0500
     45 H45        -9.6130   -3.3225   58.2270 H       1  ZINC000081577146    0.1000
     46 H46       -11.3030   -3.3057   58.7867 H       1  ZINC000081577146    0.0800
@<TRIPOS>BOND
     1     1     2    1
     2     1    27    1
     3     1    28    1
     4     1    29    1
     5     2    26    1
     6     2     3    2
     7     3     4    1
     8     4     5    1
     9     5     6    1
    10     5    26    2
    11     6    25    1
    12     6     7    1
    13     7     8    1
    14     7    30    1
    15     7    31    1
    16     8     9    1
    17     8    32    1
    18     8    33    1
    19     9    10    1
    20     9    24    1
    21    10    11    1
    22    10    12    1
    23    10    13    1
    24    12    34    1
    25    12    35    1
    26    12    36    1
    27    13    23    1
    28    13    14    2
    29    14    15    1
    30    15    16    2
    31    15    37    1
    32    16    17    1
    33    16    23    1
    34    17    22   ar
    35    17    18   ar
    36    18    19   ar
    37    18    38    1
    38    19    20   ar
    39    19    39    1
    40    20    21   ar
    41    20    40    1
    42    21    22   ar
    43    21    41    1
    44    22    42    1
    45    24    25    1
    46    24    43    1
    47    24    44    1
    48    25    45    1
    49    25    46    1
@<TRIPOS>SUBSTRUCTURE
     1 ZINC000081577146        1 TEMP              0 ****  ****    0 ROOT


##########                                Name:    ZINC000888733009
##########                DOCK_Rotatable_Bonds:                   6
##########                         Heavy_Atoms:                  25
##########                    Molecular_Weight:             360.434
##########                DOCK_Rotatable_Bonds:                   6
##########                       Formal_Charge:        -1.02073e-06
##########                     HBond_Acceptors:                   7
##########                        HBond_Donors:                   2
##########                         Heavy_Atoms:                  25
##########                          Grid_Score:          -32.765915
##########                     Grid_vdw_energy:          -31.864706
##########                      Grid_es_energy:           -0.901208
##########           Internal_energy_repulsive:           13.320184

@<TRIPOS>MOLECULE
ZINC000888733009
 45 48 1 0 0
SMALL
USER_CHARGES


@<TRIPOS>ATOM
      1 C1        -10.7757    0.7764   63.7267 C.3     1  ZINC000888733009   -0.1500
      2 C2         -9.9684    0.3783   62.4894 C.3     1  ZINC000888733009    0.0700
      3 H3         -9.2589    1.1645   62.2313 H       1  ZINC000888733009    0.0700
      4 C4        -10.9143    0.0943   61.2979 C.3     1  ZINC000888733009   -0.1300
      5 C5        -10.2496   -1.0896   60.5827 C.3     1  ZINC000888733009   -0.1100
      6 C6        -11.1583   -2.2777   60.2779 C.3     1  ZINC000888733009   -0.1300
      7 C7        -10.3791   -2.4220   58.9576 C.3     1  ZINC000888733009    0.1200
      8 N8        -11.2294   -2.7371   57.8069 N.am    1  ZINC000888733009   -0.7100
      9 C9        -11.5056   -4.0211   57.5046 C.2     1  ZINC000888733009    0.5900
     10 O10       -11.0501   -4.9189   58.1885 O.2     1  ZINC000888733009   -0.5600
     11 C11       -12.3549   -4.3364   56.3521 C.2     1  ZINC000888733009   -0.2400
     12 C12       -12.3220   -3.6390   55.1719 C.2     1  ZINC000888733009    0.0800
     13 N13       -11.4920   -2.5597   54.9175 N.am    1  ZINC000888733009   -0.6100
     14 C14       -11.1031   -2.2914   53.6553 C.2     1  ZINC000888733009    0.6000
     15 O15       -11.4823   -2.9966   52.7387 O.2     1  ZINC000888733009   -0.4900
     16 C16       -10.2233   -1.1502   53.3863 C.2     1  ZINC000888733009   -0.0900
     17 C17        -9.6961   -0.3053   54.3211 C.2     1  ZINC000888733009   -0.1000
     18 C18        -8.9201    0.6338   53.6241 C.2     1  ZINC000888733009   -0.2300
     19 C19        -9.0063    0.3252   52.3112 C.2     1  ZINC000888733009    0.0100
     20 O20        -9.7877   -0.7537   52.1725 O.3     1  ZINC000888733009   -0.1600
     21 S21       -13.4422   -4.2833   54.0605 S.3     1  ZINC000888733009    0.3000
     22 C22       -13.9733   -5.5156   55.1911 C.2     1  ZINC000888733009   -0.2800
     23 C23       -13.3130   -5.4200   56.3363 C.2     1  ZINC000888733009   -0.0900
     24 C24       -10.0379   -0.9255   59.0799 C.3     1  ZINC000888733009   -0.1400
     25 C25        -8.9927   -1.4027   61.4053 C.3     1  ZINC000888733009    0.0700
     26 O26        -9.2753   -0.8685   62.7210 O.3     1  ZINC000888733009   -0.3700
     27 H27       -10.0980    0.9467   64.5633 H       1  ZINC000888733009    0.0600
     28 H28       -11.3328    1.6898   63.5186 H       1  ZINC000888733009    0.0700
     29 H29       -11.4713   -0.0237   63.9796 H       1  ZINC000888733009    0.0600
     30 H30       -11.9071   -0.1812   61.6538 H       1  ZINC000888733009    0.0800
     31 H31       -10.9692    0.9596   60.6374 H       1  ZINC000888733009    0.0800
     32 H32       -11.0238   -3.1177   60.9594 H       1  ZINC000888733009    0.0800
     33 H33       -12.2046   -2.0045   60.1411 H       1  ZINC000888733009    0.0900
     34 H34        -9.5106   -3.0762   59.0331 H       1  ZINC000888733009    0.1200
     35 H35       -11.5934   -2.0216   57.2625 H       1  ZINC000888733009    0.4000
     36 H36       -11.1907   -1.9970   55.6479 H       1  ZINC000888733009    0.4400
     37 H37        -9.8473   -0.3508   55.3894 H       1  ZINC000888733009    0.1700
     38 H38        -8.3596    1.4499   54.0558 H       1  ZINC000888733009    0.1600
     39 H39        -8.5213    0.8581   51.5068 H       1  ZINC000888733009    0.2200
     40 H40       -14.7322   -6.2545   54.9807 H       1  ZINC000888733009    0.1700
     41 H41       -13.4793   -6.0791   57.1756 H       1  ZINC000888733009    0.1500
     42 H42       -10.7674   -0.2699   58.6043 H       1  ZINC000888733009    0.0900
     43 H43        -9.0101   -0.6871   58.8062 H       1  ZINC000888733009    0.0800
     44 H44        -8.8310   -2.4793   61.4580 H       1  ZINC000888733009    0.0900
     45 H45        -8.1228   -0.9071   60.9743 H       1  ZINC000888733009    0.0700
@<TRIPOS>BOND
     1     1     2    1
     2     1    27    1
     3     1    28    1
     4     1    29    1
     5     2     3    1
     6     2    26    1
     7     2     4    1
     8     4     5    1
     9     4    30    1
    10     4    31    1
    11     5    24    1
    12     5     6    1
    13     5    25    1
    14     6     7    1
    15     6    32    1
    16     6    33    1
    17     7     8    1
    18     7    24    1
    19     7    34    1
    20     8     9   am
    21     8    35    1
    22     9    10    2
    23     9    11    1
    24    11    23    1
    25    11    12    2
    26    12    13    1
    27    12    21    1
    28    13    14   am
    29    13    36    1
    30    14    15    2
    31    14    16    1
    32    16    20    1
    33    16    17    2
    34    17    18    1
    35    17    37    1
    36    18    19    2
    37    18    38    1
    38    19    20    1
    39    19    39    1
    40    21    22    1
    41    22    23    2
    42    22    40    1
    43    23    41    1
    44    24    42    1
    45    24    43    1
    46    25    26    1
    47    25    44    1
    48    25    45    1
@<TRIPOS>SUBSTRUCTURE
     1 ZINC000888733009        1 TEMP              0 ****  ****    0 ROOT


##########                                Name:    ZINC000915315870
##########                DOCK_Rotatable_Bonds:                   4
##########                         Heavy_Atoms:                  24
##########                    Molecular_Weight:             357.381
##########                DOCK_Rotatable_Bonds:                   4
##########                       Formal_Charge:           0.0300002
##########                     HBond_Acceptors:                   9
##########                        HBond_Donors:                   1
##########                         Heavy_Atoms:                  24
##########                          Grid_Score:          -32.762611
##########                     Grid_vdw_energy:          -31.720798
##########                      Grid_es_energy:           -1.041815
##########           Internal_energy_repulsive:           35.180656

@<TRIPOS>MOLECULE
ZINC000915315870
 41 43 1 0 0
SMALL
USER_CHARGES


@<TRIPOS>ATOM
      1 C1        -13.5075   -4.3771   54.3120 C.3     1  ZINC000915315870    0.0300
      2 O2        -12.6782   -3.2251   54.4771 O.3     1  ZINC000915315870   -0.3200
      3 C3        -11.9150   -3.1698   55.6015 C.ar    1  ZINC000915315870    0.0800
      4 C4        -11.9436   -4.2159   56.5138 C.ar    1  ZINC000915315870    0.0900
      5 F5        -12.7293   -5.2910   56.2855 F       1  ZINC000915315870   -0.1100
      6 C6        -11.1660   -4.1567   57.6569 C.ar    1  ZINC000915315870   -0.0500
      7 C7        -10.3616   -3.0569   57.8913 C.ar    1  ZINC000915315870   -0.6300
      8 S8         -9.3735   -2.9850   59.3483 S.o2    1  ZINC000915315870    2.7000
      9 O9         -8.7702   -4.2640   59.4876 O.2     1  ZINC000915315870   -0.9400
     10 O10        -8.6274   -1.7783   59.2678 O.2     1  ZINC000915315870   -0.9400
     11 N11       -10.4050   -2.8122   60.6322 N.am    1  ZINC000915315870   -1.1100
     12 C12       -11.2935   -1.6497   60.7067 C.3     1  ZINC000915315870    0.2400
     13 H13       -11.1888   -1.0484   59.8037 H       1  ZINC000915315870    0.0900
     14 C14       -12.7471   -2.1177   60.8512 C.3     1  ZINC000915315870   -0.1400
     15 C15       -13.6452   -0.9210   61.1722 C.3     1  ZINC000915315870   -0.1100
     16 C16       -13.3885   -0.4511   62.6095 C.3     1  ZINC000915315870   -0.0400
     17 C17       -11.9004   -0.2729   62.7888 C.2     1  ZINC000915315870    0.0900
     18 N18       -11.2732    0.3780   63.7248 N.2     1  ZINC000915315870   -0.2900
     19 N19        -9.8953    0.2728   63.4817 N.pl3   1  ZINC000915315870   -0.3800
     20 C20        -8.8296    0.8612   64.2967 C.3     1  ZINC000915315870    0.1000
     21 C21        -9.7239   -0.4676   62.3635 C.2     1  ZINC000915315870    0.0800
     22 C22       -10.9430   -0.8179   61.9158 C.2     1  ZINC000915315870   -0.2500
     23 C23       -10.3306   -2.0137   56.9846 C.ar    1  ZINC000915315870   -0.0500
     24 C24       -11.1015   -2.0695   55.8368 C.ar    1  ZINC000915315870    0.1000
     25 F25       -11.0707   -1.0498   54.9512 F       1  ZINC000915315870   -0.1100
     26 H26       -14.0616   -4.2948   53.3769 H       1  ZINC000915315870    0.1100
     27 H27       -12.8856   -5.2720   54.2882 H       1  ZINC000915315870    0.0600
     28 H28       -14.2076   -4.4432   55.1447 H       1  ZINC000915315870    0.0500
     29 H29       -11.1878   -4.9702   58.3669 H       1  ZINC000915315870    0.1700
     30 H30       -10.4211   -3.4807   61.3349 H       1  ZINC000915315870    0.4200
     31 H31       -13.0746   -2.5770   59.9185 H       1  ZINC000915315870    0.0900
     32 H32       -12.8144   -2.8482   61.6575 H       1  ZINC000915315870    0.0800
     33 H33       -13.4263   -0.1076   60.4805 H       1  ZINC000915315870    0.0700
     34 H34       -14.6900   -1.2135   61.0677 H       1  ZINC000915315870    0.0800
     35 H35       -13.8960    0.4979   62.7823 H       1  ZINC000915315870    0.0800
     36 H36       -13.7566   -1.1989   63.3121 H       1  ZINC000915315870    0.0900
     37 H37        -8.5301    0.1532   65.0693 H       1  ZINC000915315870    0.0800
     38 H38        -7.9730    1.0916   63.6632 H       1  ZINC000915315870    0.0900
     39 H39        -9.1928    1.7767   64.7638 H       1  ZINC000915315870    0.0900
     40 H40        -8.7790   -0.7303   61.9112 H       1  ZINC000915315870    0.1700
     41 H41        -9.7010   -1.1562   57.1703 H       1  ZINC000915315870    0.1700
@<TRIPOS>BOND
     1     1     2    1
     2     1    26    1
     3     1    27    1
     4     1    28    1
     5     2     3    1
     6     3    24   ar
     7     3     4   ar
     8     4     5    1
     9     4     6   ar
    10     6     7   ar
    11     6    29    1
    12     7     8    1
    13     7    23   ar
    14     8     9    2
    15     8    10    2
    16     8    11   am
    17    11    12    1
    18    11    30    1
    19    12    13    1
    20    12    22    1
    21    12    14    1
    22    14    15    1
    23    14    31    1
    24    14    32    1
    25    15    16    1
    26    15    33    1
    27    15    34    1
    28    16    17    1
    29    16    35    1
    30    16    36    1
    31    17    22    1
    32    17    18    2
    33    18    19    1
    34    19    20    1
    35    19    21    1
    36    20    37    1
    37    20    38    1
    38    20    39    1
    39    21    22    2
    40    21    40    1
    41    23    24   ar
    42    23    41    1
    43    24    25    1
@<TRIPOS>SUBSTRUCTURE
     1 ZINC000915315870        1 TEMP              0 ****  ****    0 ROOT


##########                                Name:    ZINC000588570917
##########                DOCK_Rotatable_Bonds:                   7
##########                         Heavy_Atoms:                  25
##########                    Molecular_Weight:             366.481
##########                DOCK_Rotatable_Bonds:                   7
##########                       Formal_Charge:          -0.0100006
##########                     HBond_Acceptors:                   7
##########                        HBond_Donors:                   1
##########                         Heavy_Atoms:                  25
##########                          Grid_Score:          -32.762428
##########                     Grid_vdw_energy:          -31.723276
##########                      Grid_es_energy:           -1.039154
##########           Internal_energy_repulsive:           17.907812

@<TRIPOS>MOLECULE
ZINC000588570917
 51 52 1 0 0
SMALL
USER_CHARGES


@<TRIPOS>ATOM
      1 C1         -8.2615    0.0371   66.1341 C.3     1  ZINC000588570917   -0.1300
      2 C2         -8.7569   -0.4202   64.7864 C.2     1  ZINC000588570917   -0.0500
      3 C3         -9.5003    0.3922   64.0402 C.2     1  ZINC000588570917   -0.2000
      4 C4         -9.8487    1.7693   64.5433 C.3     1  ZINC000588570917   -0.0900
      5 C5        -11.3116    1.7938   64.9904 C.3     1  ZINC000588570917   -0.1500
      6 C6         -9.9822   -0.0536   62.7242 C.2     1  ZINC000588570917    0.5600
      7 O7        -11.1040    0.2390   62.3564 O.2     1  ZINC000588570917   -0.5100
      8 N8         -9.1810   -0.7864   61.9259 N.am    1  ZINC000588570917   -0.6800
      9 C9         -9.6392   -1.2103   60.6746 C.ar    1  ZINC000588570917    0.2100
     10 C10       -10.0800   -2.5158   60.5005 C.ar    1  ZINC000588570917   -0.1700
     11 C11       -10.5325   -2.9310   59.2635 C.ar    1  ZINC000588570917    0.0000
     12 C12       -10.5469   -2.0486   58.1989 C.ar    1  ZINC000588570917   -0.7000
     13 S13       -11.1249   -2.5824   56.6223 S.o2    1  ZINC000588570917    2.6900
     14 O14       -10.8414   -1.5280   55.7129 O.2     1  ZINC000588570917   -0.9500
     15 O15       -10.6466   -3.9090   56.4477 O.2     1  ZINC000588570917   -0.9500
     16 N16       -12.7749   -2.6887   56.7154 N.am    1  ZINC000588570917   -1.0000
     17 C17       -13.6365   -1.8887   55.8306 C.3     1  ZINC000588570917    0.0900
     18 C18       -14.6583   -2.8248   55.1750 C.3     1  ZINC000588570917    0.0700
     19 H19       -14.1459   -3.5011   54.4907 H       1  ZINC000588570917    0.0700
     20 C20       -15.6866   -1.9974   54.4012 C.3     1  ZINC000588570917   -0.1500
     21 O21       -15.3204   -3.5835   56.1897 O.3     1  ZINC000588570917   -0.3700
     22 C22       -14.4547   -4.4398   56.9389 C.3     1  ZINC000588570917    0.0800
     23 H23       -15.0415   -5.0121   57.6574 H       1  ZINC000588570917    0.1200
     24 C24       -13.7354   -5.3982   55.9876 C.3     1  ZINC000588570917   -0.1900
     25 C25       -13.4226   -3.5906   57.6809 C.3     1  ZINC000588570917    0.0900
     26 C26       -10.1091   -0.7479   58.3690 C.ar    1  ZINC000588570917    0.0000
     27 C27        -9.6600   -0.3250   59.6046 C.ar    1  ZINC000588570917   -0.1400
     28 H28        -7.6740   -0.7575   66.5940 H       1  ZINC000588570917    0.0600
     29 H29        -7.6398    0.9239   66.0109 H       1  ZINC000588570917    0.0800
     30 H30        -9.1125    0.2757   66.7723 H       1  ZINC000588570917    0.0800
     31 H31        -8.5084   -1.4077   64.4263 H       1  ZINC000588570917    0.1300
     32 H32        -9.2065    2.0211   65.3873 H       1  ZINC000588570917    0.0700
     33 H33        -9.7007    2.4961   63.7446 H       1  ZINC000588570917    0.0800
     34 H34       -11.4597    1.0671   65.7892 H       1  ZINC000588570917    0.0500
     35 H35       -11.5638    2.7899   65.3544 H       1  ZINC000588570917    0.0600
     36 H36       -11.9539    1.5420   64.1465 H       1  ZINC000588570917    0.0600
     37 H37        -8.2864   -1.0198   62.2193 H       1  ZINC000588570917    0.4100
     38 H38       -10.0687   -3.2056   61.3315 H       1  ZINC000588570917    0.1400
     39 H39       -10.8751   -3.9462   59.1273 H       1  ZINC000588570917    0.1400
     40 H40       -14.1565   -1.1286   56.4137 H       1  ZINC000588570917    0.0900
     41 H41       -13.0300   -1.4109   55.0613 H       1  ZINC000588570917    0.1000
     42 H42       -15.1799   -1.4165   53.6306 H       1  ZINC000588570917    0.0700
     43 H43       -16.4127   -2.6636   53.9353 H       1  ZINC000588570917    0.0700
     44 H44       -16.1999   -1.3226   55.0863 H       1  ZINC000588570917    0.0700
     45 H45       -13.1475   -4.8251   55.2705 H       1  ZINC000588570917    0.0600
     46 H46       -13.0756   -6.0506   56.5595 H       1  ZINC000588570917    0.0700
     47 H47       -14.4706   -6.0014   55.4550 H       1  ZINC000588570917    0.0700
     48 H48       -12.6752   -4.2384   58.1390 H       1  ZINC000588570917    0.1000
     49 H49       -13.9186   -2.9998   58.4511 H       1  ZINC000588570917    0.0900
     50 H50       -10.1216   -0.0612   57.5355 H       1  ZINC000588570917    0.1400
     51 H51        -9.3186    0.6911   59.7368 H       1  ZINC000588570917    0.1500
@<TRIPOS>BOND
     1     1     2    1
     2     1    28    1
     3     1    29    1
     4     1    30    1
     5     2     3    2
     6     2    31    1
     7     3     4    1
     8     3     6    1
     9     4     5    1
    10     4    32    1
    11     4    33    1
    12     5    34    1
    13     5    35    1
    14     5    36    1
    15     6     7    2
    16     6     8   am
    17     8     9    1
    18     8    37    1
    19     9    27   ar
    20     9    10   ar
    21    10    11   ar
    22    10    38    1
    23    11    12   ar
    24    11    39    1
    25    12    13    1
    26    12    26   ar
    27    13    14    2
    28    13    15    2
    29    13    16   am
    30    16    25    1
    31    16    17    1
    32    17    18    1
    33    17    40    1
    34    17    41    1
    35    18    19    1
    36    18    20    1
    37    18    21    1
    38    20    42    1
    39    20    43    1
    40    20    44    1
    41    21    22    1
    42    22    23    1
    43    22    24    1
    44    22    25    1
    45    24    45    1
    46    24    46    1
    47    24    47    1
    48    25    48    1
    49    25    49    1
    50    26    27   ar
    51    26    50    1
    52    27    51    1
@<TRIPOS>SUBSTRUCTURE
     1 ZINC000588570917        1 TEMP              0 ****  ****    0 ROOT


##########                                Name:    ZINC000464752079
##########                DOCK_Rotatable_Bonds:                   7
##########                         Heavy_Atoms:                  29
##########                    Molecular_Weight:             404.413
##########                DOCK_Rotatable_Bonds:                   7
##########                       Formal_Charge:         7.45058e-08
##########                     HBond_Acceptors:                   8
##########                        HBond_Donors:                   1
##########                         Heavy_Atoms:                  29
##########                          Grid_Score:          -32.747383
##########                     Grid_vdw_energy:          -32.835617
##########                      Grid_es_energy:            0.088232
##########           Internal_energy_repulsive:           17.091150

@<TRIPOS>MOLECULE
ZINC000464752079
 51 54 1 0 0
SMALL
USER_CHARGES


@<TRIPOS>ATOM
      1 C1         -9.9625   -1.5307   52.3357 C.3     1  ZINC000464752079   -0.1200
      2 C2        -10.7275   -0.3033   52.7595 C.ar    1  ZINC000464752079   -0.0800
      3 C3        -12.1095   -0.3160   52.7587 C.ar    1  ZINC000464752079   -0.1200
      4 C4        -12.8113    0.8101   53.1474 C.ar    1  ZINC000464752079   -0.1200
      5 C5        -12.1308    1.9482   53.5371 C.ar    1  ZINC000464752079   -0.1300
      6 C6        -10.7483    1.9605   53.5387 C.ar    1  ZINC000464752079   -0.0900
      7 C7        -10.0467    0.8334   53.1542 C.ar    1  ZINC000464752079   -0.0800
      8 C8         -8.5398    0.8468   53.1559 C.3     1  ZINC000464752079    0.2000
      9 H9         -8.1602   -0.1739   53.2026 H       1  ZINC000464752079    0.0900
     10 C10        -8.0196    1.5425   51.8804 C.3     1  ZINC000464752079   -0.1200
     11 C11        -6.7945    2.3428   52.3960 C.3     1  ZINC000464752079   -0.1300
     12 C12        -7.2730    2.7698   53.8061 C.3     1  ZINC000464752079    0.1000
     13 N13        -8.0479    1.6163   54.3082 N.am    1  ZINC000464752079   -0.6300
     14 C14        -8.2683    1.3226   55.6049 C.2     1  ZINC000464752079    0.7200
     15 O15        -7.8125    2.0379   56.4762 O.2     1  ZINC000464752079   -0.5700
     16 N16        -8.9938    0.2362   55.9360 N.am    1  ZINC000464752079   -0.7400
     17 C17        -9.2348   -0.0820   57.3455 C.3     1  ZINC000464752079    0.1900
     18 C18        -9.9655   -1.3963   57.4460 C.ar    1  ZINC000464752079   -0.1200
     19 C19       -10.9235   -1.7269   56.5062 C.ar    1  ZINC000464752079   -0.0500
     20 C20       -11.5972   -2.9340   56.5960 C.ar    1  ZINC000464752079    0.0100
     21 C21       -11.3081   -3.8153   57.6347 C.ar    1  ZINC000464752079    0.0800
     22 C22       -10.3466   -3.4823   58.5748 C.ar    1  ZINC000464752079   -0.1800
     23 C23        -9.6717   -2.2750   58.4781 C.ar    1  ZINC000464752079    0.1400
     24 O24        -8.7278   -1.9483   59.4008 O.3     1  ZINC000464752079   -0.3100
     25 C25        -9.1925   -1.5644   60.6964 C.3     1  ZINC000464752079    0.4100
     26 F26       -10.4903   -1.0522   60.5934 F       1  ZINC000464752079   -0.2000
     27 F27        -9.1972   -2.6805   61.5398 F       1  ZINC000464752079   -0.2000
     28 O28       -12.0977   -4.9207   57.5017 O.3     1  ZINC000464752079   -0.3000
     29 C29       -13.1591   -4.5305   56.6105 C.3     1  ZINC000464752079    0.2100
     30 O30       -12.5689   -3.4879   55.8117 O.3     1  ZINC000464752079   -0.3000
     31 H31        -9.7797   -2.1629   53.2046 H       1  ZINC000464752079    0.0700
     32 H32       -10.5441   -2.0850   51.5991 H       1  ZINC000464752079    0.0700
     33 H33        -9.0105   -1.2320   51.8970 H       1  ZINC000464752079    0.0700
     34 H34       -12.6413   -1.2053   52.4542 H       1  ZINC000464752079    0.1200
     35 H35       -13.8913    0.8004   53.1461 H       1  ZINC000464752079    0.1200
     36 H36       -12.6789    2.8281   53.8401 H       1  ZINC000464752079    0.1200
     37 H37       -10.2165    2.8499   53.8429 H       1  ZINC000464752079    0.1100
     38 H38        -7.7141    0.8063   51.1368 H       1  ZINC000464752079    0.0900
     39 H39        -8.7749    2.2140   51.4721 H       1  ZINC000464752079    0.0800
     40 H40        -5.9111    1.7074   52.4590 H       1  ZINC000464752079    0.0800
     41 H41        -6.6039    3.2132   51.7680 H       1  ZINC000464752079    0.0900
     42 H42        -6.4183    2.9620   54.4546 H       1  ZINC000464752079    0.0700
     43 H43        -7.9067    3.6542   53.7400 H       1  ZINC000464752079    0.0700
     44 H44        -9.3565   -0.3351   55.2409 H       1  ZINC000464752079    0.4000
     45 H45        -8.2818   -0.1552   57.8696 H       1  ZINC000464752079    0.0800
     46 H46        -9.8386    0.7048   57.7976 H       1  ZINC000464752079    0.0800
     47 H47       -11.1474   -1.0431   55.7009 H       1  ZINC000464752079    0.1500
     48 H48       -10.1207   -4.1643   59.3812 H       1  ZINC000464752079    0.1500
     49 H49        -8.5321   -0.8009   61.1077 H       1  ZINC000464752079    0.1900
     50 H50       -13.4605   -5.3695   55.9832 H       1  ZINC000464752079    0.1400
     51 H51       -14.0101   -4.1467   57.1732 H       1  ZINC000464752079    0.0900
@<TRIPOS>BOND
     1     1     2    1
     2     1    31    1
     3     1    32    1
     4     1    33    1
     5     2     7   ar
     6     2     3   ar
     7     3     4   ar
     8     3    34    1
     9     4     5   ar
    10     4    35    1
    11     5     6   ar
    12     5    36    1
    13     6     7   ar
    14     6    37    1
    15     7     8    1
    16     8     9    1
    17     8    13    1
    18     8    10    1
    19    10    11    1
    20    10    38    1
    21    10    39    1
    22    11    12    1
    23    11    40    1
    24    11    41    1
    25    12    13    1
    26    12    42    1
    27    12    43    1
    28    13    14   am
    29    14    15    2
    30    14    16   am
    31    16    17    1
    32    16    44    1
    33    17    18    1
    34    17    45    1
    35    17    46    1
    36    18    23   ar
    37    18    19   ar
    38    19    20   ar
    39    19    47    1
    40    20    30    1
    41    20    21   ar
    42    21    22   ar
    43    21    28    1
    44    22    23   ar
    45    22    48    1
    46    23    24    1
    47    24    25    1
    48    25    26    1
    49    25    27    1
    50    25    49    1
    51    28    29    1
    52    29    30    1
    53    29    50    1
    54    29    51    1
@<TRIPOS>SUBSTRUCTURE
     1 ZINC000464752079        1 TEMP              0 ****  ****    0 ROOT


##########                                Name:    ZINC000512239524
##########                DOCK_Rotatable_Bonds:                   9
##########                         Heavy_Atoms:                  31
##########                    Molecular_Weight:             424.518
##########                DOCK_Rotatable_Bonds:                   9
##########                       Formal_Charge:          0.00999919
##########                     HBond_Acceptors:                   7
##########                        HBond_Donors:                   1
##########                         Heavy_Atoms:                  31
##########                          Grid_Score:          -32.736443
##########                     Grid_vdw_energy:          -31.778555
##########                      Grid_es_energy:           -0.957889
##########           Internal_energy_repulsive:           31.931026

@<TRIPOS>MOLECULE
ZINC000512239524
 60 63 1 0 0
SMALL
USER_CHARGES


@<TRIPOS>ATOM
      1 C1        -11.7379   -0.5316   59.9059 C.3     1  ZINC000512239524   -0.1600
      2 C2        -12.1536   -1.0485   58.5271 C.3     1  ZINC000512239524    0.2000
      3 H3        -13.2341   -0.9577   58.4158 H       1  ZINC000512239524    0.1100
      4 N4        -11.4876   -0.2587   57.4884 N.am    1  ZINC000512239524   -0.7400
      5 C5        -12.0076   -0.2039   56.2463 C.2     1  ZINC000512239524    0.7100
      6 O6        -13.0296   -0.8098   55.9877 O.2     1  ZINC000512239524   -0.5800
      7 N7        -11.3949    0.5227   55.2907 N.am    1  ZINC000512239524   -0.6300
      8 C8        -10.1562    1.2555   55.5863 C.3     1  ZINC000512239524    0.1300
      9 C9         -9.0884    0.8512   54.5647 C.3     1  ZINC000512239524   -0.1100
     10 C10        -9.6297    1.0761   53.1510 C.3     1  ZINC000512239524   -0.1000
     11 C11        -8.5697    0.7116   52.1438 C.2     1  ZINC000512239524    0.5300
     12 O12        -8.2111   -0.4416   52.0311 O.2     1  ZINC000512239524   -0.5300
     13 N13        -8.0200    1.6670   51.3682 N.am    1  ZINC000512239524   -0.5800
     14 C14        -6.9907    1.3123   50.3878 C.3     1  ZINC000512239524    0.1500
     15 C15        -5.6433    1.7660   50.8877 C.ar    1  ZINC000512239524   -0.1100
     16 C16        -5.4913    2.1598   52.2040 C.ar    1  ZINC000512239524   -0.0900
     17 C17        -4.2554    2.5759   52.6625 C.ar    1  ZINC000512239524   -0.1200
     18 C18        -3.1715    2.5978   51.8049 C.ar    1  ZINC000512239524   -0.1100
     19 C19        -3.3233    2.2031   50.4889 C.ar    1  ZINC000512239524   -0.1200
     20 C20        -4.5582    1.7828   50.0314 C.ar    1  ZINC000512239524   -0.1100
     21 C21        -8.4518    3.0601   51.5055 C.3     1  ZINC000512239524    0.0700
     22 C22        -8.6185    3.8777   50.2231 C.3     1  ZINC000512239524   -0.1900
     23 C23        -9.8518    3.4186   51.0033 C.3     1  ZINC000512239524   -0.2000
     24 C24       -10.8651    0.2002   52.9306 C.3     1  ZINC000512239524   -0.1400
     25 C25       -11.9497    0.5921   53.9319 C.3     1  ZINC000512239524    0.1100
     26 C26       -11.7543   -2.4953   58.3918 C.ar    1  ZINC000512239524   -0.0800
     27 C27       -10.4783   -2.9142   58.7337 C.ar    1  ZINC000512239524   -0.1400
     28 C28       -10.1478   -4.2495   58.5967 C.ar    1  ZINC000512239524    0.1000
     29 N29       -11.0291   -5.1208   58.1467 N.ar    1  ZINC000512239524   -0.4600
     30 C30       -12.2524   -4.7603   57.8113 C.ar    1  ZINC000512239524    0.0800
     31 C31       -12.6579   -3.4419   57.9267 C.ar    1  ZINC000512239524    0.0600
     32 F32       -13.9126   -3.0789   57.5815 F       1  ZINC000512239524   -0.1200
     33 H33       -12.0266    0.5148   60.0039 H       1  ZINC000512239524    0.0700
     34 H34       -12.2335   -1.1192   60.6788 H       1  ZINC000512239524    0.0700
     35 H35       -10.6574   -0.6223   60.0173 H       1  ZINC000512239524    0.0600
     36 H36       -10.6723    0.2247   57.6947 H       1  ZINC000512239524    0.3900
     37 H37       -10.3406    2.3275   55.5174 H       1  ZINC000512239524    0.0700
     38 H38        -9.8144    1.0052   56.5906 H       1  ZINC000512239524    0.1000
     39 H39        -8.1950    1.4578   54.7131 H       1  ZINC000512239524    0.0900
     40 H40        -8.8398   -0.2019   54.6960 H       1  ZINC000512239524    0.0800
     41 H41        -9.9016    2.1246   53.0287 H       1  ZINC000512239524    0.1000
     42 H42        -6.9807    0.2315   50.2465 H       1  ZINC000512239524    0.0900
     43 H43        -7.2095    1.8009   49.4384 H       1  ZINC000512239524    0.1000
     44 H44        -6.3381    2.1428   52.8741 H       1  ZINC000512239524    0.1300
     45 H45        -4.1367    2.8843   53.6907 H       1  ZINC000512239524    0.1200
     46 H46        -2.2060    2.9235   52.1630 H       1  ZINC000512239524    0.1200
     47 H47        -2.4766    2.2204   49.8187 H       1  ZINC000512239524    0.1200
     48 H48        -4.6769    1.4744   49.0032 H       1  ZINC000512239524    0.1200
     49 H49        -8.0861    3.5806   52.3906 H       1  ZINC000512239524    0.1300
     50 H50        -8.3622    4.9364   50.2643 H       1  ZINC000512239524    0.1100
     51 H51        -8.4068    3.3791   49.2773 H       1  ZINC000512239524    0.1000
     52 H52       -10.4517    2.6178   50.5707 H       1  ZINC000512239524    0.1100
     53 H53       -10.4071    4.1751   51.5578 H       1  ZINC000512239524    0.1000
     54 H54       -11.2363    0.3433   51.9158 H       1  ZINC000512239524    0.0900
     55 H55       -10.5997   -0.8468   53.0772 H       1  ZINC000512239524    0.0700
     56 H56       -12.7926   -0.0933   53.8446 H       1  ZINC000512239524    0.0800
     57 H57       -12.2819    1.6107   53.7309 H       1  ZINC000512239524    0.0800
     58 H58        -9.7509   -2.2061   59.1023 H       1  ZINC000512239524    0.1400
     59 H59        -9.1552   -4.5831   58.8612 H       1  ZINC000512239524    0.1700
     60 H60       -12.9467   -5.5026   57.4461 H       1  ZINC000512239524    0.1700
@<TRIPOS>BOND
     1     1     2    1
     2     1    33    1
     3     1    34    1
     4     1    35    1
     5     2     3    1
     6     2     4    1
     7     2    26    1
     8     4     5   am
     9     4    36    1
    10     5     6    2
    11     5     7   am
    12     7    25    1
    13     7     8    1
    14     8     9    1
    15     8    37    1
    16     8    38    1
    17     9    10    1
    18     9    39    1
    19     9    40    1
    20    10    11    1
    21    10    24    1
    22    10    41    1
    23    11    12    2
    24    11    13   am
    25    13    14    1
    26    13    21    1
    27    14    15    1
    28    14    42    1
    29    14    43    1
    30    15    20   ar
    31    15    16   ar
    32    16    17   ar
    33    16    44    1
    34    17    18   ar
    35    17    45    1
    36    18    19   ar
    37    18    46    1
    38    19    20   ar
    39    19    47    1
    40    20    48    1
    41    21    23    1
    42    21    22    1
    43    21    49    1
    44    22    23    1
    45    22    50    1
    46    22    51    1
    47    23    52    1
    48    23    53    1
    49    24    25    1
    50    24    54    1
    51    24    55    1
    52    25    56    1
    53    25    57    1
    54    26    31   ar
    55    26    27   ar
    56    27    28   ar
    57    27    58    1
    58    28    29   ar
    59    28    59    1
    60    29    30   ar
    61    30    31   ar
    62    30    60    1
    63    31    32    1
@<TRIPOS>SUBSTRUCTURE
     1 ZINC000512239524        1 TEMP              0 ****  ****    0 ROOT


##########                                Name:    ZINC000809503567
##########                DOCK_Rotatable_Bonds:                   9
##########                         Heavy_Atoms:                  26
##########                    Molecular_Weight:             353.378
##########                DOCK_Rotatable_Bonds:                   9
##########                       Formal_Charge:          -0.0200002
##########                     HBond_Acceptors:                   7
##########                        HBond_Donors:                   1
##########                         Heavy_Atoms:                  26
##########                          Grid_Score:          -32.734100
##########                     Grid_vdw_energy:          -31.167006
##########                      Grid_es_energy:           -1.567093
##########           Internal_energy_repulsive:            8.754984

@<TRIPOS>MOLECULE
ZINC000809503567
 45 46 1 0 0
SMALL
USER_CHARGES


@<TRIPOS>ATOM
      1 C1         -6.4286   -0.0135   50.3910 C.3     1  ZINC000809503567    0.0200
      2 O2         -5.8153    1.1328   49.7976 O.3     1  ZINC000809503567   -0.3100
      3 C3         -5.0536    1.9120   50.6064 C.ar    1  ZINC000809503567    0.1900
      4 C4         -5.6267    2.5614   51.6884 C.ar    1  ZINC000809503567   -0.2100
      5 C5         -4.8503    3.3545   52.5110 C.ar    1  ZINC000809503567   -0.0200
      6 C6         -3.4967    3.5076   52.2623 C.ar    1  ZINC000809503567   -0.1500
      7 C7         -2.6612    4.3760   53.1672 C.3     1  ZINC000809503567    0.1700
      8 N8         -2.0612    3.5508   54.2185 N.am    1  ZINC000809503567   -0.7000
      9 C9         -2.1597    3.9269   55.5089 C.2     1  ZINC000809503567    0.5100
     10 O10        -2.7441    4.9497   55.8000 O.2     1  ZINC000809503567   -0.4900
     11 C11        -1.5492    3.0840   56.5815 C.2     1  ZINC000809503567    0.5100
     12 O12        -0.3506    3.1148   56.7689 O.2     1  ZINC000809503567   -0.5000
     13 N13        -2.3297    2.2898   57.3407 N.am    1  ZINC000809503567   -0.4600
     14 C14        -3.7769    2.2540   57.1157 C.3     1  ZINC000809503567    0.0800
     15 O15        -1.7510    1.4900   58.3558 O.3     1  ZINC000809503567   -0.1100
     16 C16        -1.9576    1.9901   59.6784 C.3     1  ZINC000809503567    0.0800
     17 C17        -1.1341    1.1882   60.6530 C.ar    1  ZINC000809503567   -0.0900
     18 C18        -1.0446   -0.1845   60.5167 C.ar    1  ZINC000809503567   -0.1000
     19 C19        -0.2891   -0.9201   61.4107 C.ar    1  ZINC000809503567   -0.1300
     20 C20         0.3772   -0.2829   62.4408 C.ar    1  ZINC000809503567   -0.1100
     21 C21         0.2883    1.0899   62.5766 C.ar    1  ZINC000809503567   -0.1300
     22 C22        -0.4636    1.8259   61.6800 C.ar    1  ZINC000809503567   -0.0800
     23 C23        -2.9098    2.8686   51.1908 C.ar    1  ZINC000809503567   -0.0100
     24 C24        -3.6823    2.0592   50.3545 C.ar    1  ZINC000809503567   -0.0600
     25 C25        -3.0792    1.3926   49.2398 C.1     1  ZINC000809503567    0.2600
     26 N26        -2.6008    0.8639   48.3555 N.1     1  ZINC000809503567   -0.4100
     27 H27        -7.0890    0.3045   51.1978 H       1  ZINC000809503567    0.0600
     28 H28        -7.0072   -0.5473   49.6370 H       1  ZINC000809503567    0.1100
     29 H29        -5.6575   -0.6721   50.7908 H       1  ZINC000809503567    0.0600
     30 H30        -6.6819    2.4477   51.8886 H       1  ZINC000809503567    0.1400
     31 H31        -5.3017    3.8584   53.3529 H       1  ZINC000809503567    0.1400
     32 H32        -1.8726    4.8537   52.5857 H       1  ZINC000809503567    0.0900
     33 H33        -3.2919    5.1405   53.6209 H       1  ZINC000809503567    0.0900
     34 H34        -1.5930    2.7337   53.9857 H       1  ZINC000809503567    0.4100
     35 H35        -4.0121    1.4792   56.3861 H       1  ZINC000809503567    0.0800
     36 H36        -4.2852    2.0350   58.0547 H       1  ZINC000809503567    0.0800
     37 H37        -4.1101    3.2210   56.7392 H       1  ZINC000809503567    0.0900
     38 H38        -1.6556    3.0366   59.7224 H       1  ZINC000809503567    0.0700
     39 H39        -3.0127    1.9052   59.9383 H       1  ZINC000809503567    0.0600
     40 H40        -1.5650   -0.6822   59.7119 H       1  ZINC000809503567    0.1200
     41 H41        -0.2197   -1.9926   61.3046 H       1  ZINC000809503567    0.1200
     42 H42         0.9667   -0.8576   63.1396 H       1  ZINC000809503567    0.1200
     43 H43         0.8085    1.5877   63.3816 H       1  ZINC000809503567    0.1200
     44 H44        -0.5330    2.8985   61.7861 H       1  ZINC000809503567    0.1300
     45 H45        -1.8538    2.9908   51.0005 H       1  ZINC000809503567    0.1400
@<TRIPOS>BOND
     1     1     2    1
     2     1    27    1
     3     1    28    1
     4     1    29    1
     5     2     3    1
     6     3    24   ar
     7     3     4   ar
     8     4     5   ar
     9     4    30    1
    10     5     6   ar
    11     5    31    1
    12     6     7    1
    13     6    23   ar
    14     7     8    1
    15     7    32    1
    16     7    33    1
    17     8     9   am
    18     8    34    1
    19     9    10    2
    20     9    11    1
    21    11    12    2
    22    11    13   am
    23    13    14    1
    24    13    15    1
    25    14    35    1
    26    14    36    1
    27    14    37    1
    28    15    16    1
    29    16    17    1
    30    16    38    1
    31    16    39    1
    32    17    22   ar
    33    17    18   ar
    34    18    19   ar
    35    18    40    1
    36    19    20   ar
    37    19    41    1
    38    20    21   ar
    39    20    42    1
    40    21    22   ar
    41    21    43    1
    42    22    44    1
    43    23    24   ar
    44    23    45    1
    45    24    25    1
    46    25    26    3
@<TRIPOS>SUBSTRUCTURE
     1 ZINC000809503567        1 TEMP              0 ****  ****    0 ROOT


##########                                Name:    ZINC001199210165
##########                DOCK_Rotatable_Bonds:                   5
##########                         Heavy_Atoms:                  23
##########                    Molecular_Weight:             375.225
##########                DOCK_Rotatable_Bonds:                   5
##########                       Formal_Charge:         -0.00999999
##########                     HBond_Acceptors:                   6
##########                        HBond_Donors:                   2
##########                         Heavy_Atoms:                  23
##########                          Grid_Score:          -32.716862
##########                     Grid_vdw_energy:          -31.832125
##########                      Grid_es_energy:           -0.884738
##########           Internal_energy_repulsive:           16.776844

@<TRIPOS>MOLECULE
ZINC001199210165
 38 40 1 0 0
SMALL
USER_CHARGES


@<TRIPOS>ATOM
      1 C1         -2.8798    1.8132   46.3097 C.3     1  ZINC001199210165   -0.1700
      2 C2         -1.8960    1.0221   47.1742 C.3     1  ZINC001199210165    0.0800
      3 C3         -0.7773    0.4636   46.2926 C.3     1  ZINC001199210165   -0.1500
      4 O4         -1.3350    1.8833   48.1670 O.3     1  ZINC001199210165   -0.3000
      5 C5         -2.0859    2.1209   49.2719 C.ar    1  ZINC001199210165    0.3300
      6 C6         -3.3737    1.6080   49.3497 C.ar    1  ZINC001199210165   -0.1300
      7 C7         -4.1341    1.8611   50.4932 C.ar    1  ZINC001199210165   -0.0600
      8 C8         -5.5125    1.3344   50.6218 C.2     1  ZINC001199210165    0.5700
      9 O9         -6.1187    0.9705   49.6334 O.2     1  ZINC001199210165   -0.4900
     10 N10        -6.0945    1.2590   51.8351 N.am    1  ZINC001199210165   -0.6600
     11 C11        -7.3956    0.7619   51.9566 C.ar    1  ZINC001199210165    0.2000
     12 C12        -7.6500   -0.5847   51.6920 C.ar    1  ZINC001199210165   -0.1500
     13 C13        -8.9122   -1.0872   51.8056 C.ar    1  ZINC001199210165   -0.0200
     14 C14        -9.9643   -0.2486   52.1907 C.ar    1  ZINC001199210165   -0.1700
     15 C15       -11.3945   -0.4523   52.4034 C.2     1  ZINC001199210165    0.0900
     16 Br16      -12.3306   -2.0824   52.1978 Br      1  ZINC001199210165    0.0600
     17 N17       -11.9104    0.6895   52.7606 N.2     1  ZINC001199210165   -0.2100
     18 N18       -10.9165    1.6725   52.8070 N.pl3   1  ZINC001199210165   -0.4900
     19 C19        -9.7149    1.1116   52.4594 C.ar    1  ZINC001199210165    0.1500
     20 C20        -8.4197    1.6068   52.3435 C.ar    1  ZINC001199210165   -0.1700
     21 C21        -3.5586    2.6253   51.5146 C.ar    1  ZINC001199210165   -0.1900
     22 C22        -2.2714    3.0974   51.3566 C.ar    1  ZINC001199210165    0.1400
     23 N23        -1.5809    2.8337   50.2643 N.ar    1  ZINC001199210165   -0.5200
     24 H24        -2.3557    2.6358   45.8231 H       1  ZINC001199210165    0.0600
     25 H25        -3.3077    1.1564   45.5525 H       1  ZINC001199210165    0.0700
     26 H26        -3.6767    2.2112   46.9379 H       1  ZINC001199210165    0.0600
     27 H27        -2.4200    0.1996   47.6609 H       1  ZINC001199210165    0.0900
     28 H28        -0.2532    1.2861   45.8058 H       1  ZINC001199210165    0.0700
     29 H29        -0.0764   -0.1001   46.9084 H       1  ZINC001199210165    0.0600
     30 H30        -1.2052   -0.1933   45.5352 H       1  ZINC001199210165    0.0800
     31 H31        -3.7810    1.0228   48.5385 H       1  ZINC001199210165    0.1600
     32 H32        -5.6107    1.5494   52.6241 H       1  ZINC001199210165    0.4100
     33 H33        -6.8400   -1.2342   51.3943 H       1  ZINC001199210165    0.1500
     34 H34        -9.1000   -2.1304   51.5986 H       1  ZINC001199210165    0.1400
     35 H35       -11.0552    2.6020   53.0470 H       1  ZINC001199210165    0.4500
     36 H36        -8.2158    2.6467   52.5518 H       1  ZINC001199210165    0.1400
     37 H37        -4.1146    2.8431   52.4144 H       1  ZINC001199210165    0.1400
     38 H38        -1.8214    3.6881   52.1408 H       1  ZINC001199210165    0.1700
@<TRIPOS>BOND
     1     1     2    1
     2     1    24    1
     3     1    25    1
     4     1    26    1
     5     2     3    1
     6     2     4    1
     7     2    27    1
     8     3    28    1
     9     3    29    1
    10     3    30    1
    11     4     5    1
    12     5    23   ar
    13     5     6   ar
    14     6     7   ar
    15     6    31    1
    16     7     8    1
    17     7    21   ar
    18     8     9    2
    19     8    10   am
    20    10    11    1
    21    10    32    1
    22    11    20   ar
    23    11    12   ar
    24    12    13   ar
    25    12    33    1
    26    13    14   ar
    27    13    34    1
    28    14    19   ar
    29    14    15    1
    30    15    16    1
    31    15    17    2
    32    17    18    1
    33    18    19    1
    34    18    35    1
    35    19    20   ar
    36    20    36    1
    37    21    22   ar
    38    21    37    1
    39    22    23   ar
    40    22    38    1
@<TRIPOS>SUBSTRUCTURE
     1 ZINC001199210165        1 TEMP              0 ****  ****    0 ROOT


##########                                Name:    ZINC000369046711
##########                DOCK_Rotatable_Bonds:                   8
##########                         Heavy_Atoms:                  26
##########                    Molecular_Weight:             367.467
##########                DOCK_Rotatable_Bonds:                   8
##########                       Formal_Charge:        -7.63685e-07
##########                     HBond_Acceptors:                   8
##########                        HBond_Donors:                   1
##########                         Heavy_Atoms:                  26
##########                          Grid_Score:          -32.702595
##########                     Grid_vdw_energy:          -30.243494
##########                      Grid_es_energy:           -2.459102
##########           Internal_energy_repulsive:           17.759212

@<TRIPOS>MOLECULE
ZINC000369046711
 56 58 1 0 0
SMALL
USER_CHARGES


@<TRIPOS>ATOM
      1 C1          2.5984    3.0229   55.9161 C.3     1  ZINC000369046711   -0.1800
      2 C2          1.9502    3.2175   54.5439 C.3     1  ZINC000369046711    0.1400
      3 C3          0.4857    3.6218   54.7244 C.3     1  ZINC000369046711   -0.1800
      4 C4          2.6923    4.3164   53.7806 C.3     1  ZINC000369046711   -0.1400
      5 O5          2.0207    1.9757   53.7948 O.3     1  ZINC000369046711   -0.3700
      6 C6          1.9745    2.0682   52.4523 C.2     1  ZINC000369046711    0.6500
      7 O7          2.9714    1.8477   51.7935 O.2     1  ZINC000369046711   -0.5700
      8 N8          0.8225    2.4054   51.8394 N.am    1  ZINC000369046711   -0.7100
      9 C9          0.7718    2.5043   50.3786 C.3     1  ZINC000369046711    0.1800
     10 H10         1.6939    2.0980   49.9629 H       1  ZINC000369046711    0.0900
     11 C11         0.6525    3.9755   49.9827 C.3     1  ZINC000369046711   -0.1300
     12 C12        -0.6566    4.5210   50.5653 C.3     1  ZINC000369046711   -0.1200
     13 C13        -1.8203    3.7819   49.9113 C.3     1  ZINC000369046711   -0.1200
     14 C14        -1.7691    2.2860   50.2287 C.3     1  ZINC000369046711   -0.1000
     15 H15        -2.0630    2.0755   51.2570 H       1  ZINC000369046711    0.0900
     16 C16        -2.6932    1.5855   49.1952 C.3     1  ZINC000369046711    0.0400
     17 N17        -1.8458    1.2086   48.0470 N.3     1  ZINC000369046711   -0.5200
     18 C18        -2.3322    1.8292   46.8076 C.3     1  ZINC000369046711    0.1200
     19 C19        -1.7541    1.1018   45.6211 C.2     1  ZINC000369046711    0.2900
     20 N20        -1.9631   -0.1523   45.3123 N.2     1  ZINC000369046711   -0.5400
     21 C21        -1.2960   -0.4613   44.2011 C.2     1  ZINC000369046711    0.2000
     22 N22        -0.6504    0.5966   43.7856 N.2     1  ZINC000369046711   -0.3200
     23 N23        -0.9383    1.6298   44.6922 N.pl3   1  ZINC000369046711   -0.3700
     24 C24        -0.4408    3.0067   44.6412 C.3     1  ZINC000369046711    0.1000
     25 C25        -1.5813    3.9468   44.2457 C.3     1  ZINC000369046711    0.0500
     26 F26        -1.0952    5.2551   44.1493 F       1  ZINC000369046711   -0.2000
     27 C27        -0.4509    1.6194   48.3350 C.3     1  ZINC000369046711    0.0500
     28 C28        -0.3944    1.6950   49.8714 C.3     1  ZINC000369046711   -0.1000
     29 H29        -0.3229    0.6859   50.2775 H       1  ZINC000369046711    0.0900
     30 H30         2.0697    2.2401   56.4598 H       1  ZINC000369046711    0.0900
     31 H31         3.6417    2.7349   55.7875 H       1  ZINC000369046711    0.0600
     32 H32         2.5454    3.9551   56.4784 H       1  ZINC000369046711    0.0700
     33 H33         0.4327    4.5541   55.2866 H       1  ZINC000369046711    0.0700
     34 H34         0.0239    3.7605   53.7467 H       1  ZINC000369046711    0.0600
     35 H35        -0.0430    2.8390   55.2681 H       1  ZINC000369046711    0.0900
     36 H36         3.7357    4.0284   53.6520 H       1  ZINC000369046711    0.0700
     37 H37         2.2305    4.4551   52.8030 H       1  ZINC000369046711    0.0700
     38 H38         2.6393    5.2486   54.3429 H       1  ZINC000369046711    0.0800
     39 H39         0.0271    2.5825   52.3654 H       1  ZINC000369046711    0.4000
     40 H40         1.4964    4.5350   50.3862 H       1  ZINC000369046711    0.0700
     41 H41         0.6371    4.0643   48.8964 H       1  ZINC000369046711    0.0800
     42 H42        -0.6759    4.3557   51.6426 H       1  ZINC000369046711    0.0600
     43 H43        -0.7352    5.5878   50.3558 H       1  ZINC000369046711    0.0700
     44 H44        -2.7592    4.1941   50.2810 H       1  ZINC000369046711    0.0700
     45 H45        -1.7703    3.9203   48.8313 H       1  ZINC000369046711    0.0600
     46 H46        -3.1382    0.6943   49.6377 H       1  ZINC000369046711    0.0800
     47 H47        -3.4760    2.2711   48.8709 H       1  ZINC000369046711    0.0800
     48 H48        -3.4201    1.7709   46.7748 H       1  ZINC000369046711    0.0800
     49 H49        -2.0233    2.8740   46.7790 H       1  ZINC000369046711    0.1000
     50 H50        -1.2892   -1.4291   43.7217 H       1  ZINC000369046711    0.2200
     51 H51        -0.0586    3.2915   45.6215 H       1  ZINC000369046711    0.1200
     52 H52         0.3596    3.0768   43.9047 H       1  ZINC000369046711    0.1100
     53 H53        -1.9888    3.6388   43.2828 H       1  ZINC000369046711    0.0900
     54 H54        -2.3652    3.9053   45.0020 H       1  ZINC000369046711    0.0800
     55 H55         0.2516    0.8742   47.9619 H       1  ZINC000369046711    0.0900
     56 H56        -0.2421    2.5956   47.8974 H       1  ZINC000369046711    0.0600
@<TRIPOS>BOND
     1     1     2    1
     2     1    30    1
     3     1    31    1
     4     1    32    1
     5     2     3    1
     6     2     4    1
     7     2     5    1
     8     3    33    1
     9     3    34    1
    10     3    35    1
    11     4    36    1
    12     4    37    1
    13     4    38    1
    14     5     6    1
    15     6     7    2
    16     6     8   am
    17     8     9    1
    18     8    39    1
    19     9    10    1
    20     9    28    1
    21     9    11    1
    22    11    12    1
    23    11    40    1
    24    11    41    1
    25    12    13    1
    26    12    42    1
    27    12    43    1
    28    13    14    1
    29    13    44    1
    30    13    45    1
    31    14    15    1
    32    14    28    1
    33    14    16    1
    34    16    17    1
    35    16    46    1
    36    16    47    1
    37    17    18    1
    38    17    27    1
    39    18    19    1
    40    18    48    1
    41    18    49    1
    42    19    23    1
    43    19    20    2
    44    20    21    1
    45    21    22    2
    46    21    50    1
    47    22    23    1
    48    23    24    1
    49    24    25    1
    50    24    51    1
    51    24    52    1
    52    25    26    1
    53    25    53    1
    54    25    54    1
    55    27    28    1
    56    27    55    1
    57    27    56    1
    58    28    29    1
@<TRIPOS>SUBSTRUCTURE
     1 ZINC000369046711        1 TEMP              0 ****  ****    0 ROOT


##########                                Name:    ZINC001181473921
##########                DOCK_Rotatable_Bonds:                   9
##########                         Heavy_Atoms:                  24
##########                    Molecular_Weight:             357.431
##########                DOCK_Rotatable_Bonds:                   9
##########                       Formal_Charge:        -5.96046e-08
##########                     HBond_Acceptors:                   9
##########                        HBond_Donors:                   4
##########                         Heavy_Atoms:                  24
##########                          Grid_Score:          -32.702560
##########                     Grid_vdw_energy:          -31.359501
##########                      Grid_es_energy:           -1.343059
##########           Internal_energy_repulsive:           14.253212

@<TRIPOS>MOLECULE
ZINC001181473921
 47 48 1 0 0
SMALL
USER_CHARGES


@<TRIPOS>ATOM
      1 C1        -10.6593    0.5564   58.5205 C.3     1  ZINC001181473921   -0.1300
      2 C2        -10.1353    0.1455   59.8724 C.2     1  ZINC001181473921    0.1900
      3 C3        -10.1461    1.0338   60.8892 C.2     1  ZINC001181473921   -0.2400
      4 C4         -9.6579    0.6550   62.1556 C.2     1  ZINC001181473921    0.2500
      5 O5         -9.6625    1.5345   63.1857 O.3     1  ZINC001181473921   -0.4600
      6 C6         -9.1743   -0.6284   62.3306 C.2     1  ZINC001181473921   -0.3700
      7 C7         -9.1837   -1.5136   61.2463 C.2     1  ZINC001181473921    0.5300
      8 O8         -8.7605   -2.6508   61.3846 O.2     1  ZINC001181473921   -0.5500
      9 N9         -9.6632   -1.1159   60.0533 N.am    1  ZINC001181473921   -0.5000
     10 C10        -9.6664   -2.0547   58.9286 C.3     1  ZINC001181473921    0.1000
     11 C11       -10.9369   -2.9057   58.9783 C.3     1  ZINC001181473921   -0.1600
     12 C12       -11.1643   -3.5478   57.6340 C.2     1  ZINC001181473921    0.5200
     13 O13       -10.6525   -4.6173   57.3784 O.2     1  ZINC001181473921   -0.5300
     14 N14       -11.9365   -2.9338   56.7158 N.am    1  ZINC001181473921   -0.7200
     15 C15       -12.1561   -3.5573   55.4083 C.3     1  ZINC001181473921    0.1400
     16 H16       -12.3698   -4.6203   55.5200 H       1  ZINC001181473921    0.1000
     17 C17       -10.9335   -3.3374   54.4831 C.3     1  ZINC001181473921   -0.1300
     18 C18       -11.5092   -3.4690   53.0580 C.3     1  ZINC001181473921   -0.1500
     19 C19       -13.0118   -3.1536   53.1599 C.3     1  ZINC001181473921   -0.0800
     20 H20       -13.5969   -4.0162   52.8409 H       1  ZINC001181473921    0.0900
     21 C21       -13.3526   -1.9400   52.2928 C.3     1  ZINC001181473921   -0.6200
     22 S22       -15.1476   -1.8592   52.0442 S.o2    1  ZINC001181473921    2.6100
     23 N23       -15.7624   -1.5845   53.5570 N.am    1  ZINC001181473921   -1.2500
     24 O24       -15.4971   -0.6956   51.3072 O.2     1  ZINC001181473921   -0.9600
     25 O25       -15.6590   -3.1353   51.6844 O.2     1  ZINC001181473921   -0.9600
     26 C26       -13.3003   -2.8445   54.6455 C.3     1  ZINC001181473921   -0.1200
     27 H27       -11.4379   -0.1386   58.2061 H       1  ZINC001181473921    0.0900
     28 H28       -11.0737    1.5627   58.5821 H       1  ZINC001181473921    0.1000
     29 H29        -9.8454    0.5424   57.7957 H       1  ZINC001181473921    0.0900
     30 H30       -10.5277    2.0319   60.7323 H       1  ZINC001181473921    0.1500
     31 H31        -9.0865    2.2997   63.0522 H       1  ZINC001181473921    0.4100
     32 H32        -8.7942   -0.9437   63.2910 H       1  ZINC001181473921    0.1500
     33 H33        -9.6377   -1.4990   57.9914 H       1  ZINC001181473921    0.1000
     34 H34        -8.7923   -2.7027   58.9938 H       1  ZINC001181473921    0.1100
     35 H35       -10.8259   -3.6805   59.7369 H       1  ZINC001181473921    0.1100
     36 H36       -11.7887   -2.2728   59.2272 H       1  ZINC001181473921    0.1000
     37 H37       -12.3468   -2.0791   56.9205 H       1  ZINC001181473921    0.4000
     38 H38       -10.5143   -2.3427   54.6348 H       1  ZINC001181473921    0.0700
     39 H39       -10.1777   -4.1022   54.6614 H       1  ZINC001181473921    0.0800
     40 H40       -11.0226   -2.7571   52.3914 H       1  ZINC001181473921    0.0900
     41 H41       -11.3651   -4.4847   52.6894 H       1  ZINC001181473921    0.0800
     42 H42       -13.0134   -1.0313   52.7902 H       1  ZINC001181473921    0.1400
     43 H43       -12.8558   -2.0326   51.3269 H       1  ZINC001181473921    0.1400
     44 H44       -15.5049   -0.7886   54.0480 H       1  ZINC001181473921    0.4100
     45 H45       -16.3801   -2.2195   53.9523 H       1  ZINC001181473921    0.4200
     46 H46       -14.2696   -3.2480   54.9379 H       1  ZINC001181473921    0.0800
     47 H47       -13.2631   -1.7701   54.8258 H       1  ZINC001181473921    0.0800
@<TRIPOS>BOND
     1     1     2    1
     2     1    27    1
     3     1    28    1
     4     1    29    1
     5     2     9    1
     6     2     3    2
     7     3     4    1
     8     3    30    1
     9     4     5    1
    10     4     6    2
    11     5    31    1
    12     6     7    1
    13     6    32    1
    14     7     8    2
    15     7     9   am
    16     9    10    1
    17    10    11    1
    18    10    33    1
    19    10    34    1
    20    11    12    1
    21    11    35    1
    22    11    36    1
    23    12    13    2
    24    12    14   am
    25    14    15    1
    26    14    37    1
    27    15    16    1
    28    15    26    1
    29    15    17    1
    30    17    18    1
    31    17    38    1
    32    17    39    1
    33    18    19    1
    34    18    40    1
    35    18    41    1
    36    19    20    1
    37    19    21    1
    38    19    26    1
    39    21    22    1
    40    21    42    1
    41    21    43    1
    42    22    23   am
    43    22    24    2
    44    22    25    2
    45    23    44    1
    46    23    45    1
    47    26    46    1
    48    26    47    1
@<TRIPOS>SUBSTRUCTURE
     1 ZINC001181473921        1 TEMP              0 ****  ****    0 ROOT


##########                                Name:    ZINC000179743483
##########                DOCK_Rotatable_Bonds:                   5
##########                         Heavy_Atoms:                  23
##########                    Molecular_Weight:             393.347
##########                DOCK_Rotatable_Bonds:                   5
##########                       Formal_Charge:          -0.0199999
##########                     HBond_Acceptors:                   4
##########                        HBond_Donors:                   0
##########                         Heavy_Atoms:                  23
##########                          Grid_Score:          -32.699951
##########                     Grid_vdw_energy:          -32.157688
##########                      Grid_es_energy:           -0.542263
##########           Internal_energy_repulsive:           25.174770

@<TRIPOS>MOLECULE
ZINC000179743483
 44 46 1 0 0
SMALL
USER_CHARGES


@<TRIPOS>ATOM
      1 C1         -8.9264   -3.7257   59.7186 C.3     1  ZINC000179743483   -0.1400
      2 C2        -10.1195   -2.7736   59.8231 C.3     1  ZINC000179743483   -0.1000
      3 H3        -10.5712   -2.8643   60.8110 H       1  ZINC000179743483    0.1000
      4 C4         -9.6441   -1.3350   59.6098 C.3     1  ZINC000179743483   -0.0700
      5 C5         -9.4703   -0.6600   60.9459 C.ar    1  ZINC000179743483   -0.0600
      6 C6         -9.7442    0.6885   61.0796 C.ar    1  ZINC000179743483   -0.1100
      7 C7         -9.5853    1.3078   62.3050 C.ar    1  ZINC000179743483   -0.0900
      8 C8         -9.1523    0.5783   63.3976 C.ar    1  ZINC000179743483   -0.0900
      9 Br9        -8.9354    1.4250   65.0744 Br      1  ZINC000179743483   -0.0500
     10 C10        -8.8785   -0.7709   63.2632 C.ar    1  ZINC000179743483   -0.0900
     11 C11        -9.0426   -1.3906   62.0388 C.ar    1  ZINC000179743483   -0.1100
     12 C12       -11.1383   -3.1273   58.7706 C.2     1  ZINC000179743483    0.5200
     13 O13       -10.8427   -3.8852   57.8710 O.2     1  ZINC000179743483   -0.5300
     14 N14       -12.3779   -2.6016   58.8288 N.am    1  ZINC000179743483   -0.6100
     15 C15       -13.3818   -2.9371   57.8099 C.3     1  ZINC000179743483    0.1000
     16 C16       -14.6442   -3.4489   58.5110 C.3     1  ZINC000179743483   -0.1400
     17 C17       -15.1103   -2.4113   59.5350 C.3     1  ZINC000179743483   -0.1100
     18 C18       -14.0205   -2.2080   60.5899 C.3     1  ZINC000179743483   -0.0200
     19 H19       -13.8051   -3.1583   61.0785 H       1  ZINC000179743483    0.0900
     20 C20       -14.4935   -1.2109   61.6161 C.2     1  ZINC000179743483    0.0500
     21 N21       -13.9906   -1.0704   62.7959 N.2     1  ZINC000179743483   -0.4700
     22 C22       -14.5241   -0.1472   63.5705 C.2     1  ZINC000179743483    0.0400
     23 C23       -15.5331    0.5286   63.0128 C.2     1  ZINC000179743483   -0.2600
     24 S24       -15.7696   -0.0971   61.3828 S.3     1  ZINC000179743483    0.1300
     25 C25       -12.7529   -1.6870   59.9158 C.3     1  ZINC000179743483    0.1200
     26 H26        -8.5222   -3.6920   58.7068 H       1  ZINC000179743483    0.0700
     27 H27        -8.1563   -3.4225   60.4278 H       1  ZINC000179743483    0.0700
     28 H28        -9.2508   -4.7411   59.9464 H       1  ZINC000179743483    0.0600
     29 H29        -8.6919   -1.3419   59.0796 H       1  ZINC000179743483    0.0900
     30 H30       -10.3836   -0.7916   59.0216 H       1  ZINC000179743483    0.0800
     31 H31       -10.0818    1.2580   60.2265 H       1  ZINC000179743483    0.1300
     32 H32        -9.7989    2.3614   62.4093 H       1  ZINC000179743483    0.1300
     33 H33        -8.5404   -1.3408   64.1160 H       1  ZINC000179743483    0.1300
     34 H34        -8.8289   -2.4440   61.9337 H       1  ZINC000179743483    0.1300
     35 H35       -13.6225   -2.0478   57.2273 H       1  ZINC000179743483    0.0700
     36 H36       -12.9896   -3.7125   57.1518 H       1  ZINC000179743483    0.0900
     37 H37       -15.4300   -3.6104   57.7732 H       1  ZINC000179743483    0.0800
     38 H38       -14.4229   -4.3875   59.0191 H       1  ZINC000179743483    0.0700
     39 H39       -15.3075   -1.4658   59.0298 H       1  ZINC000179743483    0.0800
     40 H40       -16.0223   -2.7620   60.0179 H       1  ZINC000179743483    0.0700
     41 H41       -14.1746    0.0470   64.5738 H       1  ZINC000179743483    0.1800
     42 H42       -16.1009    1.3210   63.4779 H       1  ZINC000179743483    0.1800
     43 H43       -11.9455   -1.6349   60.6462 H       1  ZINC000179743483    0.0900
     44 H44       -12.9396   -0.6956   59.5031 H       1  ZINC000179743483    0.0800
@<TRIPOS>BOND
     1     1     2    1
     2     1    26    1
     3     1    27    1
     4     1    28    1
     5     2     3    1
     6     2     4    1
     7     2    12    1
     8     4     5    1
     9     4    29    1
    10     4    30    1
    11     5    11   ar
    12     5     6   ar
    13     6     7   ar
    14     6    31    1
    15     7     8   ar
    16     7    32    1
    17     8     9    1
    18     8    10   ar
    19    10    11   ar
    20    10    33    1
    21    11    34    1
    22    12    13    2
    23    12    14   am
    24    14    25    1
    25    14    15    1
    26    15    16    1
    27    15    35    1
    28    15    36    1
    29    16    17    1
    30    16    37    1
    31    16    38    1
    32    17    18    1
    33    17    39    1
    34    17    40    1
    35    18    19    1
    36    18    20    1
    37    18    25    1
    38    20    24    1
    39    20    21    2
    40    21    22    1
    41    22    23    2
    42    22    41    1
    43    23    24    1
    44    23    42    1
    45    25    43    1
    46    25    44    1
@<TRIPOS>SUBSTRUCTURE
     1 ZINC000179743483        1 TEMP              0 ****  ****    0 ROOT


##########                                Name:    ZINC000821214121
##########                DOCK_Rotatable_Bonds:                  10
##########                         Heavy_Atoms:                  23
##########                    Molecular_Weight:             338.434
##########                DOCK_Rotatable_Bonds:                  10
##########                       Formal_Charge:          0.00999954
##########                     HBond_Acceptors:                   9
##########                        HBond_Donors:                   3
##########                         Heavy_Atoms:                  23
##########                          Grid_Score:          -32.692139
##########                     Grid_vdw_energy:          -29.299910
##########                      Grid_es_energy:           -3.392229
##########           Internal_energy_repulsive:            9.613137

@<TRIPOS>MOLECULE
ZINC000821214121
 45 46 1 0 0
SMALL
USER_CHARGES


@<TRIPOS>ATOM
      1 C1        -10.3023    0.4291   62.5248 C.3     1  ZINC000821214121   -0.1500
      2 C2        -11.4981    1.0378   63.2600 C.3     1  ZINC000821214121    0.0500
      3 N3        -12.7359    0.3970   62.7961 N.3     1  ZINC000821214121   -0.5200
      4 C4        -13.7510    0.3826   63.8579 C.3     1  ZINC000821214121    0.0600
      5 C5        -14.7603   -0.7341   63.5834 C.3     1  ZINC000821214121   -0.1200
      6 C6        -15.8475   -0.7149   64.6597 C.3     1  ZINC000821214121    0.0800
      7 O7        -15.2851   -1.1121   65.9119 O.3     1  ZINC000821214121   -0.5700
      8 C8        -13.2483    1.0551   61.5869 C.3     1  ZINC000821214121    0.0400
      9 C9        -13.3811    0.0405   60.4806 C.2     1  ZINC000821214121    0.5000
     10 O10       -13.8401    0.3701   59.4072 O.2     1  ZINC000821214121   -0.4800
     11 N11       -12.9897   -1.2331   60.6836 N.am    1  ZINC000821214121   -0.6300
     12 C12       -13.1110   -2.1710   59.6599 C.2     1  ZINC000821214121    0.0800
     13 C13       -12.0720   -2.7910   59.0320 C.2     1  ZINC000821214121   -0.1000
     14 C14       -10.6527   -2.5332   59.3742 C.2     1  ZINC000821214121    0.2900
     15 N15        -9.8237   -3.3774   59.9610 N.2     1  ZINC000821214121   -0.3300
     16 N16        -8.6004   -2.6971   60.0776 N.pl3   1  ZINC000821214121   -0.2900
     17 N17        -8.7676   -1.5243   59.5691 N.2     1  ZINC000821214121    0.0200
     18 N18        -9.9737   -1.4049   59.1402 N.2     1  ZINC000821214121   -0.2900
     19 C19       -12.4625   -3.6895   58.0392 C.2     1  ZINC000821214121   -0.0500
     20 C20       -11.4689   -4.4788   57.2263 C.3     1  ZINC000821214121   -0.1000
     21 C21       -13.7750   -3.7984   57.8633 C.2     1  ZINC000821214121   -0.2400
     22 C22       -14.4371   -4.7010   56.8542 C.3     1  ZINC000821214121   -0.0800
     23 S23       -14.6286   -2.7447   58.9814 S.3     1  ZINC000821214121    0.2600
     24 H24       -10.3119   -0.6538   62.6495 H       1  ZINC000821214121    0.0700
     25 H25       -10.3649    0.6733   61.4644 H       1  ZINC000821214121    0.0500
     26 H26        -9.3780    0.8340   62.9370 H       1  ZINC000821214121    0.0600
     27 H27       -11.3855    0.8773   64.3322 H       1  ZINC000821214121    0.0900
     28 H28       -11.5441    2.1075   63.0556 H       1  ZINC000821214121    0.0400
     29 H29       -13.2685    0.2078   64.8196 H       1  ZINC000821214121    0.0400
     30 H30       -14.2678    1.3420   63.8795 H       1  ZINC000821214121    0.0800
     31 H31       -15.2151   -0.5804   62.6048 H       1  ZINC000821214121    0.0800
     32 H32       -14.2500   -1.6972   63.5996 H       1  ZINC000821214121    0.0700
     33 H33       -16.2543    0.2924   64.7473 H       1  ZINC000821214121    0.0400
     34 H34       -16.6442   -1.4058   64.3837 H       1  ZINC000821214121    0.0500
     35 H35       -15.9291   -1.1726   66.6308 H       1  ZINC000821214121    0.3800
     36 H36       -14.2241    1.4930   61.7973 H       1  ZINC000821214121    0.0700
     37 H37       -12.5568    1.8395   61.2794 H       1  ZINC000821214121    0.1200
     38 H38       -12.6237   -1.4971   61.5423 H       1  ZINC000821214121    0.4200
     39 H39        -7.7832   -3.0445   60.4679 H       1  ZINC000821214121    0.4700
     40 H40       -11.2603   -5.4247   57.7262 H       1  ZINC000821214121    0.0700
     41 H41       -11.8826   -4.6742   56.2370 H       1  ZINC000821214121    0.0700
     42 H42       -10.5454   -3.9085   57.1277 H       1  ZINC000821214121    0.0900
     43 H43       -14.6272   -5.6741   57.3067 H       1  ZINC000821214121    0.0700
     44 H44       -15.3805   -4.2584   56.5346 H       1  ZINC000821214121    0.0700
     45 H45       -13.7823   -4.8232   55.9914 H       1  ZINC000821214121    0.0800
@<TRIPOS>BOND
     1     1     2    1
     2     1    24    1
     3     1    25    1
     4     1    26    1
     5     2     3    1
     6     2    27    1
     7     2    28    1
     8     3     4    1
     9     3     8    1
    10     4     5    1
    11     4    29    1
    12     4    30    1
    13     5     6    1
    14     5    31    1
    15     5    32    1
    16     6     7    1
    17     6    33    1
    18     6    34    1
    19     7    35    1
    20     8     9    1
    21     8    36    1
    22     8    37    1
    23     9    10    2
    24     9    11   am
    25    11    12    1
    26    11    38    1
    27    12    23    1
    28    12    13    2
    29    13    14    1
    30    13    19    1
    31    14    18    1
    32    14    15    2
    33    15    16    1
    34    16    17    1
    35    16    39    1
    36    17    18    2
    37    19    20    1
    38    19    21    2
    39    20    40    1
    40    20    41    1
    41    20    42    1
    42    21    22    1
    43    21    23    1
    44    22    43    1
    45    22    44    1
    46    22    45    1
@<TRIPOS>SUBSTRUCTURE
     1 ZINC000821214121        1 TEMP              0 ****  ****    0 ROOT


##########                                Name:    ZINC000967287417
##########                DOCK_Rotatable_Bonds:                   7
##########                         Heavy_Atoms:                  25
##########                    Molecular_Weight:             347.414
##########                DOCK_Rotatable_Bonds:                   7
##########                       Formal_Charge:          -0.0200002
##########                     HBond_Acceptors:                   7
##########                        HBond_Donors:                   1
##########                         Heavy_Atoms:                  25
##########                          Grid_Score:          -32.687893
##########                     Grid_vdw_energy:          -31.720709
##########                      Grid_es_energy:           -0.967185
##########           Internal_energy_repulsive:            8.325036

@<TRIPOS>MOLECULE
ZINC000967287417
 50 52 1 0 0
SMALL
USER_CHARGES


@<TRIPOS>ATOM
      1 C1         -6.0147    1.1379   50.8473 C.3     1  ZINC000967287417    0.0300
      2 O2         -6.8453    2.2485   51.1920 O.3     1  ZINC000967287417   -0.3900
      3 C3         -7.1901    2.3084   52.5774 C.3     1  ZINC000967287417    0.1400
      4 C4         -8.4594    1.5309   52.8132 C.2     1  ZINC000967287417    0.0100
      5 C5         -9.5510    1.9860   53.4668 C.2     1  ZINC000967287417   -0.1900
      6 C6        -10.4984    0.9503   53.4596 C.2     1  ZINC000967287417   -0.1200
      7 C7         -9.9297   -0.0974   52.7937 C.2     1  ZINC000967287417   -0.0700
      8 C8        -10.5553   -1.3994   52.5407 C.2     1  ZINC000967287417    0.6100
      9 O9        -10.0527   -2.1718   51.7458 O.2     1  ZINC000967287417   -0.5200
     10 N10       -11.6868   -1.7407   53.1884 N.am    1  ZINC000967287417   -0.7000
     11 C11       -12.3108   -3.0421   52.9371 C.3     1  ZINC000967287417    0.1600
     12 H12       -11.8870   -3.4804   52.0335 H       1  ZINC000967287417    0.1000
     13 C13       -12.0519   -3.9710   54.1254 C.3     1  ZINC000967287417    0.0400
     14 N14       -12.6402   -3.3905   55.3392 N.3     1  ZINC000967287417   -0.5300
     15 C15       -12.2926   -4.1855   56.5246 C.3     1  ZINC000967287417    0.1300
     16 C16       -11.2992   -3.4257   57.3653 C.2     1  ZINC000967287417    0.0200
     17 N17       -11.0392   -2.1516   57.3046 N.2     1  ZINC000967287417   -0.3500
     18 O18       -10.1930   -1.8310   58.1066 O.3     1  ZINC000967287417    0.1000
     19 C19        -9.7704   -2.8818   58.8236 C.2     1  ZINC000967287417   -0.0300
     20 C20        -8.7284   -2.8709   59.9122 C.3     1  ZINC000967287417   -0.0800
     21 C21       -10.4693   -3.9542   58.3806 C.2     1  ZINC000967287417   -0.2400
     22 C22       -14.0960   -3.2493   55.2085 C.3     1  ZINC000967287417    0.0500
     23 C23       -14.4159   -2.2990   54.0525 C.3     1  ZINC000967287417   -0.1100
     24 C24       -13.8203   -2.8591   52.7569 C.3     1  ZINC000967287417   -0.1000
     25 H25       -14.2795   -3.8215   52.5311 H       1  ZINC000967287417    0.0900
     26 C26       -14.0861   -1.8837   51.6084 C.3     1  ZINC000967287417   -0.1500
     27 O27        -8.6934    0.2771   52.4045 O.3     1  ZINC000967287417   -0.1600
     28 H28        -6.5306    0.2090   51.0907 H       1  ZINC000967287417    0.0500
     29 H29        -5.7980    1.1639   49.7794 H       1  ZINC000967287417    0.0900
     30 H30        -5.0821    1.1935   51.4088 H       1  ZINC000967287417    0.0500
     31 H31        -6.3843    1.8773   53.1715 H       1  ZINC000967287417    0.0900
     32 H32        -7.3410    3.3476   52.8697 H       1  ZINC000967287417    0.0700
     33 H33        -9.6719    2.9628   53.9112 H       1  ZINC000967287417    0.1600
     34 H34       -11.4859    0.9768   53.8963 H       1  ZINC000967287417    0.1600
     35 H35       -12.0881   -1.1246   53.8212 H       1  ZINC000967287417    0.4100
     36 H36       -12.5046   -4.9435   53.9317 H       1  ZINC000967287417    0.0500
     37 H37       -10.9775   -4.0919   54.2646 H       1  ZINC000967287417    0.0900
     38 H38       -13.1919   -4.3777   57.1097 H       1  ZINC000967287417    0.0600
     39 H39       -11.8538   -5.1327   56.2110 H       1  ZINC000967287417    0.0900
     40 H40        -8.3502   -1.8571   60.0430 H       1  ZINC000967287417    0.0800
     41 H41        -9.1742   -3.2157   60.8453 H       1  ZINC000967287417    0.0900
     42 H42        -7.9072   -3.5322   59.6356 H       1  ZINC000967287417    0.0900
     43 H43       -10.4031   -4.9774   58.7198 H       1  ZINC000967287417    0.1700
     44 H44       -14.5391   -4.2252   55.0097 H       1  ZINC000967287417    0.0400
     45 H45       -14.5064   -2.8462   56.1344 H       1  ZINC000967287417    0.0800
     46 H46       -15.4968   -2.2066   53.9458 H       1  ZINC000967287417    0.0700
     47 H47       -13.9849   -1.3190   54.2572 H       1  ZINC000967287417    0.0700
     48 H48       -13.6245   -0.9223   51.8341 H       1  ZINC000967287417    0.0600
     49 H49       -13.6619   -2.2830   50.6871 H       1  ZINC000967287417    0.0600
     50 H50       -15.1610   -1.7509   51.4859 H       1  ZINC000967287417    0.0600
@<TRIPOS>BOND
     1     1     2    1
     2     1    28    1
     3     1    29    1
     4     1    30    1
     5     2     3    1
     6     3     4    1
     7     3    31    1
     8     3    32    1
     9     4    27    1
    10     4     5    2
    11     5     6    1
    12     5    33    1
    13     6     7    2
    14     6    34    1
    15     7     8    1
    16     7    27    1
    17     8     9    2
    18     8    10   am
    19    10    11    1
    20    10    35    1
    21    11    12    1
    22    11    24    1
    23    11    13    1
    24    13    14    1
    25    13    36    1
    26    13    37    1
    27    14    15    1
    28    14    22    1
    29    15    16    1
    30    15    38    1
    31    15    39    1
    32    16    21    1
    33    16    17    2
    34    17    18    1
    35    18    19    1
    36    19    20    1
    37    19    21    2
    38    20    40    1
    39    20    41    1
    40    20    42    1
    41    21    43    1
    42    22    23    1
    43    22    44    1
    44    22    45    1
    45    23    24    1
    46    23    46    1
    47    23    47    1
    48    24    25    1
    49    24    26    1
    50    26    48    1
    51    26    49    1
    52    26    50    1
@<TRIPOS>SUBSTRUCTURE
     1 ZINC000967287417        1 TEMP              0 ****  ****    0 ROOT


##########                                Name:    ZINC000533037883
##########                DOCK_Rotatable_Bonds:                   7
##########                         Heavy_Atoms:                  27
##########                    Molecular_Weight:             368.479
##########                DOCK_Rotatable_Bonds:                   7
##########                       Formal_Charge:          0.00999947
##########                     HBond_Acceptors:                   6
##########                        HBond_Donors:                   1
##########                         Heavy_Atoms:                  27
##########                          Grid_Score:          -32.677158
##########                     Grid_vdw_energy:          -32.248554
##########                      Grid_es_energy:           -0.428604
##########           Internal_energy_repulsive:           13.924631

@<TRIPOS>MOLECULE
ZINC000533037883
 55 58 1 0 0
SMALL
USER_CHARGES


@<TRIPOS>ATOM
      1 O1        -13.8468   -1.1746   57.8092 O.2     1  ZINC000533037883   -0.5900
      2 C2        -12.9236   -1.9356   57.5921 C.2     1  ZINC000533037883    0.7100
      3 N3        -12.7747   -2.4829   56.3695 N.am    1  ZINC000533037883   -0.7500
      4 C4        -13.7287   -2.1657   55.3038 C.3     1  ZINC000533037883    0.1400
      5 C5        -13.4780   -3.0831   54.1054 C.3     1  ZINC000533037883   -0.0500
      6 C6        -12.1417   -2.7536   53.4915 C.2     1  ZINC000533037883   -0.2300
      7 C7        -11.6400   -1.5123   53.2957 C.2     1  ZINC000533037883    0.0600
      8 N8        -10.4221   -1.6462   52.7236 N.pl3   1  ZINC000533037883   -0.3200
      9 C9         -9.5636   -0.6007   52.3562 C.ar    1  ZINC000533037883    0.1600
     10 C10        -9.9369    0.7176   52.5812 C.ar    1  ZINC000533037883   -0.1400
     11 C11        -9.0890    1.7455   52.2181 C.ar    1  ZINC000533037883   -0.0900
     12 C12        -7.8695    1.4630   51.6306 C.ar    1  ZINC000533037883   -0.1300
     13 C13        -7.4950    0.1511   51.4053 C.ar    1  ZINC000533037883   -0.0900
     14 C14        -8.3359   -0.8813   51.7718 C.ar    1  ZINC000533037883   -0.1200
     15 N15       -10.1699   -3.0149   52.5637 N.2     1  ZINC000533037883   -0.2900
     16 C16       -11.1983   -3.6775   53.0287 C.2     1  ZINC000533037883    0.0700
     17 N17       -12.0461   -2.2274   58.5725 N.am    1  ZINC000533037883   -0.6300
     18 C18       -10.9221   -3.1403   58.3237 C.3     1  ZINC000533037883    0.1100
     19 C19        -9.6205   -2.4418   58.7299 C.3     1  ZINC000533037883   -0.1400
     20 C20        -9.7334   -1.9643   60.1795 C.3     1  ZINC000533037883   -0.1100
     21 C21       -10.8794   -0.9572   60.2988 C.3     1  ZINC000533037883   -0.0900
     22 H22       -10.6951   -0.1154   59.6315 H       1  ZINC000533037883    0.0800
     23 C23       -10.9700   -0.4551   61.7413 C.3     1  ZINC000533037883   -0.1200
     24 H24       -11.1693   -1.2798   62.4254 H       1  ZINC000533037883    0.0900
     25 C25        -9.6739    0.2985   62.1465 C.3     1  ZINC000533037883   -0.1500
     26 C26       -10.2231    1.2719   63.2197 C.3     1  ZINC000533037883    0.0500
     27 O27       -11.5249    1.6543   62.7482 O.3     1  ZINC000533037883   -0.3900
     28 C28       -12.0480    0.6420   61.8745 C.3     1  ZINC000533037883    0.0500
     29 C29       -12.1918   -1.6341   59.9087 C.3     1  ZINC000533037883    0.1300
     30 H30       -12.0360   -3.0869   56.1952 H       1  ZINC000533037883    0.4000
     31 H31       -14.7446   -2.3148   55.6694 H       1  ZINC000533037883    0.0700
     32 H32       -13.6009   -1.1269   54.9993 H       1  ZINC000533037883    0.0700
     33 H33       -13.4796   -4.1217   54.4362 H       1  ZINC000533037883    0.0800
     34 H34       -14.2641   -2.9364   53.3648 H       1  ZINC000533037883    0.0800
     35 H35       -12.1254   -0.5817   53.5503 H       1  ZINC000533037883    0.1800
     36 H36       -10.8895    0.9389   53.0394 H       1  ZINC000533037883    0.1300
     37 H37        -9.3789    2.7712   52.3929 H       1  ZINC000533037883    0.1300
     38 H38        -7.2085    2.2686   51.3469 H       1  ZINC000533037883    0.1300
     39 H39        -6.5419   -0.0665   50.9462 H       1  ZINC000533037883    0.1300
     40 H40        -8.0427   -1.9058   51.5958 H       1  ZINC000533037883    0.1400
     41 H41       -11.3032   -4.7522   53.0465 H       1  ZINC000533037883    0.1900
     42 H42       -11.0499   -4.0471   58.9149 H       1  ZINC000533037883    0.0700
     43 H43       -10.8852   -3.3944   57.2644 H       1  ZINC000533037883    0.0800
     44 H44        -8.7892   -3.1413   58.6410 H       1  ZINC000533037883    0.0800
     45 H45        -9.4479   -1.5860   58.0773 H       1  ZINC000533037883    0.0700
     46 H46        -9.9306   -2.8175   60.8286 H       1  ZINC000533037883    0.0700
     47 H47        -8.7994   -1.4888   60.4789 H       1  ZINC000533037883    0.0700
     48 H48        -8.9400   -0.3843   62.5743 H       1  ZINC000533037883    0.0800
     49 H49        -9.2549    0.8427   61.3001 H       1  ZINC000533037883    0.0800
     50 H50       -10.3025    0.7676   64.1827 H       1  ZINC000533037883    0.0600
     51 H51        -9.5785    2.1471   63.3020 H       1  ZINC000533037883    0.0900
     52 H52       -12.2578    1.0714   60.8948 H       1  ZINC000533037883    0.0700
     53 H53       -12.9602    0.2227   62.2988 H       1  ZINC000533037883    0.0700
     54 H54       -12.9941   -0.8962   59.8967 H       1  ZINC000533037883    0.1000
     55 H55       -12.4257   -2.4195   60.6274 H       1  ZINC000533037883    0.0700
@<TRIPOS>BOND
     1     1     2    2
     2     2     3   am
     3     2    17   am
     4     3     4    1
     5     3    30    1
     6     4     5    1
     7     4    31    1
     8     4    32    1
     9     5     6    1
    10     5    33    1
    11     5    34    1
    12     6    16    1
    13     6     7    2
    14     7     8    1
    15     7    35    1
    16     8     9    1
    17     8    15    1
    18     9    14   ar
    19     9    10   ar
    20    10    11   ar
    21    10    36    1
    22    11    12   ar
    23    11    37    1
    24    12    13   ar
    25    12    38    1
    26    13    14   ar
    27    13    39    1
    28    14    40    1
    29    15    16    2
    30    16    41    1
    31    17    29    1
    32    17    18    1
    33    18    19    1
    34    18    42    1
    35    18    43    1
    36    19    20    1
    37    19    44    1
    38    19    45    1
    39    20    21    1
    40    20    46    1
    41    20    47    1
    42    21    22    1
    43    21    23    1
    44    21    29    1
    45    23    24    1
    46    23    28    1
    47    23    25    1
    48    25    26    1
    49    25    48    1
    50    25    49    1
    51    26    27    1
    52    26    50    1
    53    26    51    1
    54    27    28    1
    55    28    52    1
    56    28    53    1
    57    29    54    1
    58    29    55    1
@<TRIPOS>SUBSTRUCTURE
     1 ZINC000533037883        1 TEMP              0 ****  ****    0 ROOT


##########                                Name:    ZINC000076573199
##########                DOCK_Rotatable_Bonds:                  10
##########                         Heavy_Atoms:                  24
##########                    Molecular_Weight:             333.431
##########                DOCK_Rotatable_Bonds:                  10
##########                       Formal_Charge:          -0.0200009
##########                     HBond_Acceptors:                   6
##########                        HBond_Donors:                   3
##########                         Heavy_Atoms:                  24
##########                          Grid_Score:          -32.676895
##########                     Grid_vdw_energy:          -27.709368
##########                      Grid_es_energy:           -4.967527
##########           Internal_energy_repulsive:           17.075333

@<TRIPOS>MOLECULE
ZINC000076573199
 51 51 1 0 0
SMALL
USER_CHARGES


@<TRIPOS>ATOM
      1 C1         -2.0772    3.8908   63.3271 C.3     1  ZINC000076573199   -0.1500
      2 C2         -1.8371    3.9187   64.8380 C.3     1  ZINC000076573199   -0.1200
      3 C3         -2.7862    2.9338   65.5235 C.3     1  ZINC000076573199   -0.1000
      4 H4         -2.8100    3.1374   66.5940 H       1  ZINC000076573199    0.0700
      5 C5         -2.2956    1.5041   65.2870 C.3     1  ZINC000076573199   -0.1500
      6 C6         -4.1928    3.0929   64.9428 C.3     1  ZINC000076573199   -0.1200
      7 C7         -5.2239    2.6072   65.9634 C.3     1  ZINC000076573199    0.1400
      8 H8         -4.7685    1.8591   66.6122 H       1  ZINC000076573199    0.1000
      9 C9         -5.7028    3.7903   66.8072 C.3     1  ZINC000076573199   -0.1700
     10 N10        -6.3649    2.0149   65.2609 N.am    1  ZINC000076573199   -0.6900
     11 C11        -7.0026    0.9511   65.7883 C.2     1  ZINC000076573199    0.5100
     12 O12        -6.6308    0.4830   66.8445 O.2     1  ZINC000076573199   -0.5100
     13 C13        -8.1670    0.3483   65.0730 C.2     1  ZINC000076573199    0.5100
     14 O14        -8.5156   -0.7858   65.3290 O.2     1  ZINC000076573199   -0.5000
     15 N15        -8.8304    1.0636   64.1432 N.am    1  ZINC000076573199   -0.6400
     16 C16        -9.9197    0.4997   63.4740 C.ar    1  ZINC000076573199    0.1500
     17 C17       -11.1912    0.5727   64.0297 C.ar    1  ZINC000076573199   -0.1300
     18 C18       -12.2687    0.0156   63.3680 C.ar    1  ZINC000076573199   -0.0800
     19 C19       -12.0860   -0.6154   62.1527 C.ar    1  ZINC000076573199   -0.1200
     20 C20       -13.2642   -1.2212   61.4346 C.3     1  ZINC000076573199   -0.1100
     21 C21       -10.8170   -0.6919   61.5916 C.ar    1  ZINC000076573199    0.1600
     22 N22       -10.6331   -1.3312   60.3607 N.am    1  ZINC000076573199   -0.6700
     23 C23       -10.0299   -2.5354   60.3103 C.2     1  ZINC000076573199    0.5100
     24 C24        -9.8317   -3.2241   58.9846 C.3     1  ZINC000076573199   -0.1700
     25 O25        -9.6463   -3.0647   61.3318 O.2     1  ZINC000076573199   -0.5200
     26 C26        -9.7338   -0.1291   62.2504 C.ar    1  ZINC000076573199   -0.1400
     27 H27        -3.1087    4.1747   63.1180 H       1  ZINC000076573199    0.0600
     28 H28        -1.4011    4.5924   62.8388 H       1  ZINC000076573199    0.0500
     29 H29        -1.8933    2.8855   62.9484 H       1  ZINC000076573199    0.0500
     30 H30        -0.8057    3.6348   65.0471 H       1  ZINC000076573199    0.0600
     31 H31        -2.0211    4.9241   65.2166 H       1  ZINC000076573199    0.0600
     32 H32        -2.3505    1.2723   64.2233 H       1  ZINC000076573199    0.0600
     33 H33        -1.2634    1.4134   65.6257 H       1  ZINC000076573199    0.0600
     34 H34        -2.9230    0.8079   65.8434 H       1  ZINC000076573199    0.0500
     35 H35        -4.3748    4.1429   64.7141 H       1  ZINC000076573199    0.0800
     36 H36        -4.2782    2.5022   64.0307 H       1  ZINC000076573199    0.0700
     37 H37        -6.4374    3.4443   67.5343 H       1  ZINC000076573199    0.0600
     38 H38        -4.8539    4.2310   67.3299 H       1  ZINC000076573199    0.0700
     39 H39        -6.1583    4.5385   66.1584 H       1  ZINC000076573199    0.0600
     40 H40        -6.6614    2.3883   64.4162 H       1  ZINC000076573199    0.4100
     41 H41        -8.5518    1.9700   63.9386 H       1  ZINC000076573199    0.4200
     42 H42       -11.3373    1.0650   64.9798 H       1  ZINC000076573199    0.1400
     43 H43       -13.2559    0.0733   63.8021 H       1  ZINC000076573199    0.1300
     44 H44       -13.7095   -0.4766   60.7748 H       1  ZINC000076573199    0.0700
     45 H45       -12.9307   -2.0755   60.8456 H       1  ZINC000076573199    0.0600
     46 H46       -14.0047   -1.5495   62.1640 H       1  ZINC000076573199    0.0700
     47 H47       -10.9398   -0.9079   59.5436 H       1  ZINC000076573199    0.4100
     48 H48        -9.2204   -2.5959   58.3366 H       1  ZINC000076573199    0.0900
     49 H49        -9.3307   -4.1791   59.1425 H       1  ZINC000076573199    0.1000
     50 H50       -10.8007   -3.3952   58.5157 H       1  ZINC000076573199    0.0900
     51 H51        -8.7466   -0.1873   61.8162 H       1  ZINC000076573199    0.1400
@<TRIPOS>BOND
     1     1     2    1
     2     1    27    1
     3     1    28    1
     4     1    29    1
     5     2     3    1
     6     2    30    1
     7     2    31    1
     8     3     4    1
     9     3     5    1
    10     3     6    1
    11     5    32    1
    12     5    33    1
    13     5    34    1
    14     6     7    1
    15     6    35    1
    16     6    36    1
    17     7     8    1
    18     7     9    1
    19     7    10    1
    20     9    37    1
    21     9    38    1
    22     9    39    1
    23    10    11   am
    24    10    40    1
    25    11    12    2
    26    11    13    1
    27    13    14    2
    28    13    15   am
    29    15    16    1
    30    15    41    1
    31    16    26   ar
    32    16    17   ar
    33    17    18   ar
    34    17    42    1
    35    18    19   ar
    36    18    43    1
    37    19    20    1
    38    19    21   ar
    39    20    44    1
    40    20    45    1
    41    20    46    1
    42    21    22    1
    43    21    26   ar
    44    22    23   am
    45    22    47    1
    46    23    24    1
    47    23    25    2
    48    24    48    1
    49    24    49    1
    50    24    50    1
    51    26    51    1
@<TRIPOS>SUBSTRUCTURE
     1 ZINC000076573199        1 TEMP              0 ****  ****    0 ROOT


##########                                Name:    ZINC001282645012
##########                DOCK_Rotatable_Bonds:                   9
##########                         Heavy_Atoms:                  27
##########                    Molecular_Weight:             372.511
##########                DOCK_Rotatable_Bonds:                   9
##########                       Formal_Charge:          -0.0200004
##########                     HBond_Acceptors:                   6
##########                        HBond_Donors:                   1
##########                         Heavy_Atoms:                  27
##########                          Grid_Score:          -32.673206
##########                     Grid_vdw_energy:          -32.951607
##########                      Grid_es_energy:            0.278400
##########           Internal_energy_repulsive:           28.785669

@<TRIPOS>MOLECULE
ZINC001282645012
 59 61 1 0 0
SMALL
USER_CHARGES


@<TRIPOS>ATOM
      1 C1         -8.7538   -3.2604   59.6690 C.2     1  ZINC001282645012   -0.1900
      2 C2         -9.0857   -2.0165   59.4269 C.2     1  ZINC001282645012   -0.1300
      3 C3        -10.2171   -1.3765   60.1895 C.3     1  ZINC001282645012   -0.0500
      4 C4         -9.8991   -1.3964   61.6860 C.3     1  ZINC001282645012   -0.1500
      5 C5        -10.3913    0.0706   59.7243 C.3     1  ZINC001282645012   -0.1400
      6 C6        -11.4901   -2.1423   59.9362 C.2     1  ZINC001282645012    0.5500
      7 O7        -12.1999   -2.4630   60.8658 O.2     1  ZINC001282645012   -0.5300
      8 N8        -11.8398   -2.4706   58.6767 N.am    1  ZINC001282645012   -0.6300
      9 C9        -13.0331   -3.2170   58.1512 C.3     1  ZINC001282645012    0.1200
     10 H10       -13.7447   -3.5637   58.9004 H       1  ZINC001282645012    0.1300
     11 C11       -12.3415   -4.3340   57.3130 C.3     1  ZINC001282645012   -0.1300
     12 C12       -11.0629   -3.6432   56.7780 C.3     1  ZINC001282645012   -0.1300
     13 C13       -11.1595   -2.1972   57.3653 C.3     1  ZINC001282645012    0.1200
     14 H14       -10.2190   -1.6493   57.4234 H       1  ZINC001282645012    0.1200
     15 C15       -12.2924   -1.5038   56.5502 C.3     1  ZINC001282645012    0.1300
     16 H16       -12.3163   -0.4343   56.7590 H       1  ZINC001282645012    0.1000
     17 N17       -12.1172   -1.7440   55.1157 N.am    1  ZINC001282645012   -0.7100
     18 C18       -11.4567   -0.8464   54.3578 C.2     1  ZINC001282645012    0.5100
     19 O19       -11.0087    0.1610   54.8630 O.2     1  ZINC001282645012   -0.5100
     20 C20       -11.2748   -1.0944   52.8825 C.3     1  ZINC001282645012    0.1200
     21 H21       -11.4250   -2.1531   52.6708 H       1  ZINC001282645012    0.1300
     22 C22       -12.2945   -0.2675   52.0968 C.3     1  ZINC001282645012   -0.1100
     23 C23       -13.2362   -1.2054   51.3387 C.3     1  ZINC001282645012   -0.1000
     24 C24       -14.1986   -1.8689   52.3258 C.3     1  ZINC001282645012   -0.1500
     25 C25       -14.0345   -0.4034   50.3090 C.3     1  ZINC001282645012   -0.1500
     26 N26        -9.9197   -0.7046   52.4852 N.pl3   1  ZINC001282645012   -0.4500
     27 C27        -9.3754    0.5481   52.5759 C.2     1  ZINC001282645012   -0.0600
     28 C28        -8.1166    0.4609   52.1053 C.2     1  ZINC001282645012   -0.0200
     29 N29        -7.8984   -0.8101   51.7370 N.2     1  ZINC001282645012   -0.4900
     30 C30        -8.9723   -1.5151   51.9664 C.2     1  ZINC001282645012    0.1900
     31 C31       -13.5918   -2.1955   57.1152 C.3     1  ZINC001282645012   -0.1400
     32 H32        -9.2909   -3.8273   60.4151 H       1  ZINC001282645012    0.1000
     33 H33        -7.9459   -3.7205   59.1194 H       1  ZINC001282645012    0.1000
     34 H34        -8.5487   -1.4497   58.6809 H       1  ZINC001282645012    0.1100
     35 H35        -8.9783   -0.8425   61.8691 H       1  ZINC001282645012    0.0700
     36 H36       -10.7174   -0.9334   62.2375 H       1  ZINC001282645012    0.0700
     37 H37        -9.7750   -2.4273   62.0174 H       1  ZINC001282645012    0.0600
     38 H38       -10.6178    0.0848   58.6582 H       1  ZINC001282645012    0.0600
     39 H39       -11.2096    0.5335   60.2759 H       1  ZINC001282645012    0.0700
     40 H40        -9.4706    0.6245   59.9074 H       1  ZINC001282645012    0.0700
     41 H41       -12.0830   -5.1838   57.9448 H       1  ZINC001282645012    0.0800
     42 H42       -12.9819   -4.6477   56.4887 H       1  ZINC001282645012    0.0800
     43 H43       -10.1705   -4.1505   57.1445 H       1  ZINC001282645012    0.0700
     44 H44       -11.0693   -3.6144   55.6885 H       1  ZINC001282645012    0.0800
     45 H45       -12.4765   -2.5492   54.7114 H       1  ZINC001282645012    0.4000
     46 H46       -12.8722    0.3477   52.7866 H       1  ZINC001282645012    0.0900
     47 H47       -11.7723    0.3744   51.3873 H       1  ZINC001282645012    0.0800
     48 H48       -12.6527   -1.9721   50.8291 H       1  ZINC001282645012    0.0700
     49 H49       -14.7821   -1.1022   52.8355 H       1  ZINC001282645012    0.0600
     50 H50       -14.8694   -2.5371   51.7858 H       1  ZINC001282645012    0.0600
     51 H51       -13.6298   -2.4402   53.0595 H       1  ZINC001282645012    0.0500
     52 H52       -13.3561   -0.0013   49.5564 H       1  ZINC001282645012    0.0600
     53 H53       -14.7652   -1.0543   49.8288 H       1  ZINC001282645012    0.0600
     54 H54       -14.5508    0.4166   50.8080 H       1  ZINC001282645012    0.0600
     55 H55        -9.8619    1.4357   52.9524 H       1  ZINC001282645012    0.1700
     56 H56        -7.4072    1.2724   52.0362 H       1  ZINC001282645012    0.1700
     57 H57        -9.0868   -2.5705   51.7680 H       1  ZINC001282645012    0.2000
     58 H58       -14.1173   -2.7299   56.3238 H       1  ZINC001282645012    0.0900
     59 H59       -14.2459   -1.4598   57.5829 H       1  ZINC001282645012    0.0900
@<TRIPOS>BOND
     1     1     2    2
     2     1    32    1
     3     1    33    1
     4     2     3    1
     5     2    34    1
     6     3     4    1
     7     3     5    1
     8     3     6    1
     9     4    35    1
    10     4    36    1
    11     4    37    1
    12     5    38    1
    13     5    39    1
    14     5    40    1
    15     6     7    2
    16     6     8   am
    17     8    13    1
    18     8     9    1
    19     9    10    1
    20     9    31    1
    21     9    11    1
    22    11    12    1
    23    11    41    1
    24    11    42    1
    25    12    13    1
    26    12    43    1
    27    12    44    1
    28    13    14    1
    29    13    15    1
    30    15    16    1
    31    15    17    1
    32    15    31    1
    33    17    18   am
    34    17    45    1
    35    18    19    2
    36    18    20    1
    37    20    21    1
    38    20    22    1
    39    20    26    1
    40    22    23    1
    41    22    46    1
    42    22    47    1
    43    23    24    1
    44    23    25    1
    45    23    48    1
    46    24    49    1
    47    24    50    1
    48    24    51    1
    49    25    52    1
    50    25    53    1
    51    25    54    1
    52    26    30    1
    53    26    27    1
    54    27    28    2
    55    27    55    1
    56    28    29    1
    57    28    56    1
    58    29    30    2
    59    30    57    1
    60    31    58    1
    61    31    59    1
@<TRIPOS>SUBSTRUCTURE
     1 ZINC001282645012        1 TEMP              0 ****  ****    0 ROOT


##########                                Name:    ZINC000302023461
##########                DOCK_Rotatable_Bonds:                   3
##########                         Heavy_Atoms:                  25
##########                    Molecular_Weight:             356.362
##########                DOCK_Rotatable_Bonds:                   3
##########                       Formal_Charge:        -2.08616e-07
##########                     HBond_Acceptors:                   9
##########                        HBond_Donors:                   1
##########                         Heavy_Atoms:                  25
##########                          Grid_Score:          -32.669640
##########                     Grid_vdw_energy:          -29.862341
##########                      Grid_es_energy:           -2.807297
##########           Internal_energy_repulsive:           23.131830

@<TRIPOS>MOLECULE
ZINC000302023461
 37 40 1 0 0
SMALL
USER_CHARGES


@<TRIPOS>ATOM
      1 O1        -13.4436   -4.7550   54.1070 O.2     1  ZINC000302023461   -0.1600
      2 N2        -12.8386   -4.5341   55.1409 N.pl3   1  ZINC000302023461    0.0200
      3 O3        -12.8137   -5.3735   56.0232 O.2     1  ZINC000302023461   -0.1300
      4 C4        -12.1286   -3.2479   55.3225 C.ar    1  ZINC000302023461    0.0000
      5 C5        -12.1562   -2.2959   54.3231 C.ar    1  ZINC000302023461   -0.0600
      6 C6        -11.4931   -1.0939   54.4919 C.ar    1  ZINC000302023461   -0.0900
      7 C7        -10.8006   -0.8409   55.6619 C.ar    1  ZINC000302023461   -0.0800
      8 C8        -10.7686   -1.7885   56.6660 C.ar    1  ZINC000302023461   -0.0500
      9 C9        -11.4380   -2.9950   56.5019 C.ar    1  ZINC000302023461   -0.1100
     10 S10       -11.4005   -4.2067   57.7805 S.3     1  ZINC000302023461    0.1900
     11 C11       -10.3977   -3.4491   59.0153 C.2     1  ZINC000302023461    0.2100
     12 N12        -9.1086   -3.6421   59.1745 N.2     1  ZINC000302023461   -0.3200
     13 N13        -8.7077   -2.8523   60.2643 N.pl3   1  ZINC000302023461   -0.4700
     14 C14        -9.8172   -2.2158   60.7029 C.2     1  ZINC000302023461    0.3500
     15 C15        -9.8865   -1.2702   61.8377 C.ar    1  ZINC000302023461   -0.0400
     16 C16        -8.8315   -1.1904   62.7472 C.ar    1  ZINC000302023461   -0.0900
     17 C17        -8.8995   -0.3091   63.8055 C.ar    1  ZINC000302023461   -0.1100
     18 C18       -10.0150    0.5009   63.9710 C.ar    1  ZINC000302023461    0.0800
     19 O19       -10.0643    1.3572   65.0275 O.3     1  ZINC000302023461   -0.3000
     20 C20       -11.0258    2.4154   64.9547 C.3     1  ZINC000302023461    0.0200
     21 C21       -12.3632    1.8192   64.4953 C.3     1  ZINC000302023461    0.0200
     22 O22       -12.1682    1.2187   63.2104 O.3     1  ZINC000302023461   -0.3000
     23 C23       -11.0694    0.4282   63.0651 C.ar    1  ZINC000302023461    0.0500
     24 C24       -11.0047   -0.4512   61.9987 C.ar    1  ZINC000302023461   -0.0500
     25 N25       -10.8250   -2.5823   59.9359 N.2     1  ZINC000302023461   -0.5000
     26 H26       -12.6961   -2.4903   53.4080 H       1  ZINC000302023461    0.1600
     27 H27       -11.5158   -0.3512   53.7081 H       1  ZINC000302023461    0.1500
     28 H28       -10.2840    0.0988   55.7904 H       1  ZINC000302023461    0.1500
     29 H29       -10.2271   -1.5905   57.5792 H       1  ZINC000302023461    0.1600
     30 H30        -7.8123   -2.7782   60.6300 H       1  ZINC000302023461    0.4400
     31 H31        -7.9621   -1.8190   62.6225 H       1  ZINC000302023461    0.1300
     32 H32        -8.0818   -0.2488   64.5087 H       1  ZINC000302023461    0.1500
     33 H33       -11.1450    2.8718   65.9373 H       1  ZINC000302023461    0.1300
     34 H34       -10.6926    3.1661   64.2381 H       1  ZINC000302023461    0.0800
     35 H35       -12.6930    1.0633   65.2081 H       1  ZINC000302023461    0.0800
     36 H36       -13.1118    2.6082   64.4226 H       1  ZINC000302023461    0.1300
     37 H37       -11.8211   -0.5066   61.2938 H       1  ZINC000302023461    0.1600
@<TRIPOS>BOND
     1     1     2    2
     2     2     3    2
     3     2     4    1
     4     4     9   ar
     5     4     5   ar
     6     5     6   ar
     7     5    26    1
     8     6     7   ar
     9     6    27    1
    10     7     8   ar
    11     7    28    1
    12     8     9   ar
    13     8    29    1
    14     9    10    1
    15    10    11    1
    16    11    25    1
    17    11    12    2
    18    12    13    1
    19    13    14    1
    20    13    30    1
    21    14    15    1
    22    14    25    2
    23    15    24   ar
    24    15    16   ar
    25    16    17   ar
    26    16    31    1
    27    17    18   ar
    28    17    32    1
    29    18    23   ar
    30    18    19    1
    31    19    20    1
    32    20    21    1
    33    20    33    1
    34    20    34    1
    35    21    22    1
    36    21    35    1
    37    21    36    1
    38    22    23    1
    39    23    24   ar
    40    24    37    1
@<TRIPOS>SUBSTRUCTURE
     1 ZINC000302023461        1 TEMP              0 ****  ****    0 ROOT


##########                                Name:    ZINC000028372981
##########                DOCK_Rotatable_Bonds:                   7
##########                         Heavy_Atoms:                  28
##########                    Molecular_Weight:             380.443
##########                DOCK_Rotatable_Bonds:                   7
##########                       Formal_Charge:         1.78814e-07
##########                     HBond_Acceptors:                   6
##########                        HBond_Donors:                   1
##########                         Heavy_Atoms:                  28
##########                          Grid_Score:          -32.668320
##########                     Grid_vdw_energy:          -31.765196
##########                      Grid_es_energy:           -0.903124
##########           Internal_energy_repulsive:           18.315454

@<TRIPOS>MOLECULE
ZINC000028372981
 52 54 1 0 0
SMALL
USER_CHARGES


@<TRIPOS>ATOM
      1 C1         -9.6756   -0.0341   62.4432 C.3     1  ZINC000028372981   -0.1800
      2 C2         -9.9056   -1.0053   61.3142 C.2     1  ZINC000028372981    0.5200
      3 O3         -9.7706   -2.1959   61.5015 O.2     1  ZINC000028372981   -0.5100
      4 N4        -10.2612   -0.5508   60.0962 N.am    1  ZINC000028372981   -0.5500
      5 C5        -10.4553    0.8599   59.7514 C.3     1  ZINC000028372981    0.1000
      6 C6        -10.8494    0.8618   58.2654 C.3     1  ZINC000028372981   -0.0900
      7 C7        -10.8475   -0.5984   57.8711 C.ar    1  ZINC000028372981   -0.1500
      8 C8        -11.1176   -1.2063   56.6655 C.ar    1  ZINC000028372981    0.0000
      9 C9        -11.0518   -2.5981   56.5538 C.ar    1  ZINC000028372981   -0.1600
     10 C10       -11.3451   -3.2547   55.2664 C.2     1  ZINC000028372981    0.5200
     11 O11       -12.2541   -4.0572   55.1870 O.2     1  ZINC000028372981   -0.5000
     12 O12       -10.6054   -2.9648   54.1782 O.3     1  ZINC000028372981   -0.3200
     13 C13       -11.1365   -1.9674   53.2665 C.3     1  ZINC000028372981    0.0700
     14 H14       -11.7221   -1.2383   53.8267 H       1  ZINC000028372981    0.1200
     15 C15       -12.0297   -2.6494   52.2283 C.3     1  ZINC000028372981   -0.1700
     16 C16        -9.9985   -1.2681   52.5685 C.2     1  ZINC000028372981    0.5200
     17 O17        -9.4854   -1.7714   51.5917 O.2     1  ZINC000028372981   -0.4900
     18 N18        -9.5511   -0.0833   53.0298 N.am    1  ZINC000028372981   -0.6600
     19 C19        -8.4946    0.5659   52.3817 C.ar    1  ZINC000028372981    0.1500
     20 C20        -7.3066   -0.1107   52.1385 C.ar    1  ZINC000028372981   -0.1300
     21 C21        -6.2656    0.5330   51.4981 C.ar    1  ZINC000028372981   -0.1000
     22 C22        -6.4059    1.8493   51.0989 C.ar    1  ZINC000028372981   -0.1300
     23 C23        -7.5879    2.5258   51.3393 C.ar    1  ZINC000028372981   -0.0700
     24 C24        -7.7365    3.9603   50.9021 C.3     1  ZINC000028372981   -0.1200
     25 C25        -8.6320    1.8884   51.9799 C.ar    1  ZINC000028372981   -0.1200
     26 C26        -9.9193    2.6265   52.2424 C.3     1  ZINC000028372981   -0.1200
     27 C27       -10.7003   -3.3627   57.6701 C.ar    1  ZINC000028372981   -0.0200
     28 C28       -10.4272   -2.7473   58.8677 C.ar    1  ZINC000028372981   -0.1800
     29 C29       -10.4977   -1.3547   58.9827 C.ar    1  ZINC000028372981    0.1900
     30 H30       -10.5895    0.5299   62.6293 H       1  ZINC000028372981    0.1000
     31 H31        -9.3975   -0.5826   63.3433 H       1  ZINC000028372981    0.1000
     32 H32        -8.8732    0.6528   62.1739 H       1  ZINC000028372981    0.1000
     33 H33       -11.2546    1.2900   60.3550 H       1  ZINC000028372981    0.0900
     34 H34        -9.5292    1.4156   59.8977 H       1  ZINC000028372981    0.0900
     35 H35       -11.8435    1.2895   58.1360 H       1  ZINC000028372981    0.1000
     36 H36       -10.1177    1.4171   57.6785 H       1  ZINC000028372981    0.1000
     37 H37       -11.3844   -0.6079   55.8071 H       1  ZINC000028372981    0.1400
     38 H38       -11.4441   -3.3785   51.6681 H       1  ZINC000028372981    0.0800
     39 H39       -12.8527   -3.1552   52.7331 H       1  ZINC000028372981    0.0800
     40 H40       -12.4284   -1.9006   51.5439 H       1  ZINC000028372981    0.0800
     41 H41        -9.9616    0.3191   53.8111 H       1  ZINC000028372981    0.4100
     42 H42        -7.1984   -1.1404   52.4457 H       1  ZINC000028372981    0.1400
     43 H43        -5.3415    0.0073   51.3086 H       1  ZINC000028372981    0.1300
     44 H44        -5.5906    2.3502   50.5980 H       1  ZINC000028372981    0.1200
     45 H45        -8.1369    3.9918   49.8888 H       1  ZINC000028372981    0.0700
     46 H46        -8.4175    4.4775   51.5781 H       1  ZINC000028372981    0.0700
     47 H47        -6.7626    4.4494   50.9232 H       1  ZINC000028372981    0.0700
     48 H48       -10.5949    2.4904   51.3979 H       1  ZINC000028372981    0.0700
     49 H49       -10.3849    2.2349   53.1468 H       1  ZINC000028372981    0.0600
     50 H50        -9.7094    3.6882   52.3722 H       1  ZINC000028372981    0.0800
     51 H51       -10.6429   -4.4382   57.5907 H       1  ZINC000028372981    0.1500
     52 H52       -10.1564   -3.3430   59.7269 H       1  ZINC000028372981    0.1500
@<TRIPOS>BOND
     1     1     2    1
     2     1    30    1
     3     1    31    1
     4     1    32    1
     5     2     3    2
     6     2     4   am
     7     4    29    1
     8     4     5    1
     9     5     6    1
    10     5    33    1
    11     5    34    1
    12     6     7    1
    13     6    35    1
    14     6    36    1
    15     7    29   ar
    16     7     8   ar
    17     8     9   ar
    18     8    37    1
    19     9    10    1
    20     9    27   ar
    21    10    11    2
    22    10    12    1
    23    12    13    1
    24    13    14    1
    25    13    15    1
    26    13    16    1
    27    15    38    1
    28    15    39    1
    29    15    40    1
    30    16    17    2
    31    16    18   am
    32    18    19    1
    33    18    41    1
    34    19    25   ar
    35    19    20   ar
    36    20    21   ar
    37    20    42    1
    38    21    22   ar
    39    21    43    1
    40    22    23   ar
    41    22    44    1
    42    23    24    1
    43    23    25   ar
    44    24    45    1
    45    24    46    1
    46    24    47    1
    47    25    26    1
    48    26    48    1
    49    26    49    1
    50    26    50    1
    51    27    28   ar
    52    27    51    1
    53    28    29   ar
    54    28    52    1
@<TRIPOS>SUBSTRUCTURE
     1 ZINC000028372981        1 TEMP              0 ****  ****    0 ROOT


##########                                Name:    ZINC000373864439
##########                DOCK_Rotatable_Bonds:                   7
##########                         Heavy_Atoms:                  23
##########                    Molecular_Weight:              344.45
##########                DOCK_Rotatable_Bonds:                   7
##########                       Formal_Charge:          -0.0300001
##########                     HBond_Acceptors:                   7
##########                        HBond_Donors:                   1
##########                         Heavy_Atoms:                  23
##########                          Grid_Score:          -32.666752
##########                     Grid_vdw_energy:          -30.837988
##########                      Grid_es_energy:           -1.828765
##########           Internal_energy_repulsive:           19.627945

@<TRIPOS>MOLECULE
ZINC000373864439
 48 49 1 0 0
SMALL
USER_CHARGES


@<TRIPOS>ATOM
      1 C1         -5.7766    1.4947   66.1391 C.3     1  ZINC000373864439   -0.1500
      2 C2         -7.1699    2.0863   66.3623 C.3     1  ZINC000373864439   -0.6300
      3 S3         -8.4272    0.8711   65.8798 S.o2    1  ZINC000373864439    2.6100
      4 O4         -8.2022   -0.3677   66.5387 O.2     1  ZINC000373864439   -0.9500
      5 O5         -9.7167    1.4678   65.8623 O.2     1  ZINC000373864439   -0.9600
      6 N6         -8.1034    0.5514   64.2875 N.am    1  ZINC000373864439   -1.1200
      7 C7         -8.9323   -0.4045   63.5491 C.3     1  ZINC000373864439    0.1100
      8 C8         -9.7103    0.3321   62.4569 C.3     1  ZINC000373864439    0.0500
      9 N9        -10.5994   -0.6122   61.7673 N.3     1  ZINC000373864439   -0.5300
     10 C10        -9.8437   -1.4681   60.8438 C.3     1  ZINC000373864439    0.0400
     11 C11       -10.7737   -2.5310   60.2545 C.3     1  ZINC000373864439   -0.1300
     12 C12       -11.9246   -1.8424   59.5158 C.3     1  ZINC000373864439    0.1800
     13 F13       -11.4137   -1.0884   58.4537 F       1  ZINC000373864439   -0.2100
     14 C14       -12.8754   -2.8831   58.9830 C.ar    1  ZINC000373864439   -0.1500
     15 C15       -14.1129   -3.0549   59.5719 C.ar    1  ZINC000373864439   -0.0700
     16 C16       -14.9857   -4.0101   59.0836 C.ar    1  ZINC000373864439   -0.1600
     17 C17       -14.6224   -4.7949   58.0051 C.ar    1  ZINC000373864439   -0.0700
     18 C18       -13.3858   -4.6266   57.4122 C.ar    1  ZINC000373864439   -0.2100
     19 C19       -12.5107   -3.6656   57.8967 C.ar    1  ZINC000373864439    0.1400
     20 O20       -11.2938   -3.4981   57.3153 O.3     1  ZINC000373864439   -0.3100
     21 C21       -11.2759   -3.2483   55.9084 C.3     1  ZINC000373864439    0.0200
     22 C22       -12.6655   -0.9203   60.4880 C.3     1  ZINC000373864439   -0.1300
     23 C23       -11.6807    0.0960   61.0704 C.3     1  ZINC000373864439    0.0600
     24 H24        -5.6533    1.2430   65.0857 H       1  ZINC000373864439    0.0700
     25 H25        -5.0212    2.2249   66.4290 H       1  ZINC000373864439    0.0800
     26 H26        -5.6629    0.5947   66.7434 H       1  ZINC000373864439    0.0700
     27 H27        -7.2932    2.3379   67.4157 H       1  ZINC000373864439    0.1300
     28 H28        -7.2835    2.9863   65.7580 H       1  ZINC000373864439    0.1300
     29 H29        -7.3650    0.9972   63.8438 H       1  ZINC000373864439    0.4200
     30 H30        -8.2947   -1.1620   63.0931 H       1  ZINC000373864439    0.0700
     31 H31        -9.6324   -0.8832   64.2338 H       1  ZINC000373864439    0.0900
     32 H32       -10.3041    1.1275   62.9073 H       1  ZINC000373864439    0.0900
     33 H33        -9.0109    0.7623   61.7399 H       1  ZINC000373864439    0.0400
     34 H34        -9.4321   -0.8592   60.0388 H       1  ZINC000373864439    0.0400
     35 H35        -9.0309   -1.9550   61.3826 H       1  ZINC000373864439    0.0900
     36 H36       -10.2161   -3.1563   59.5572 H       1  ZINC000373864439    0.0800
     37 H37       -11.1749   -3.1491   61.0576 H       1  ZINC000373864439    0.1000
     38 H38       -14.3991   -2.4431   60.4146 H       1  ZINC000373864439    0.1300
     39 H39       -15.9526   -4.1434   59.5460 H       1  ZINC000373864439    0.1300
     40 H40       -15.3056   -5.5404   57.6259 H       1  ZINC000373864439    0.1300
     41 H41       -13.1023   -5.2402   56.5699 H       1  ZINC000373864439    0.1300
     42 H42       -10.2451   -3.1342   55.5727 H       1  ZINC000373864439    0.1000
     43 H43       -11.7378   -4.0855   55.3849 H       1  ZINC000373864439    0.0600
     44 H44       -11.8310   -2.3351   55.6944 H       1  ZINC000373864439    0.0600
     45 H45       -13.4596   -0.3947   59.9575 H       1  ZINC000373864439    0.0800
     46 H46       -13.0965   -1.5131   61.2948 H       1  ZINC000373864439    0.1000
     47 H47       -12.2022    0.7450   61.7739 H       1  ZINC000373864439    0.0800
     48 H48       -11.2605    0.6976   60.2645 H       1  ZINC000373864439    0.0400
@<TRIPOS>BOND
     1     1     2    1
     2     1    24    1
     3     1    25    1
     4     1    26    1
     5     2     3    1
     6     2    27    1
     7     2    28    1
     8     3     4    2
     9     3     5    2
    10     3     6   am
    11     6     7    1
    12     6    29    1
    13     7     8    1
    14     7    30    1
    15     7    31    1
    16     8     9    1
    17     8    32    1
    18     8    33    1
    19     9    23    1
    20     9    10    1
    21    10    11    1
    22    10    34    1
    23    10    35    1
    24    11    12    1
    25    11    36    1
    26    11    37    1
    27    12    13    1
    28    12    14    1
    29    12    22    1
    30    14    19   ar
    31    14    15   ar
    32    15    16   ar
    33    15    38    1
    34    16    17   ar
    35    16    39    1
    36    17    18   ar
    37    17    40    1
    38    18    19   ar
    39    18    41    1
    40    19    20    1
    41    20    21    1
    42    21    42    1
    43    21    43    1
    44    21    44    1
    45    22    23    1
    46    22    45    1
    47    22    46    1
    48    23    47    1
    49    23    48    1
@<TRIPOS>SUBSTRUCTURE
     1 ZINC000373864439        1 TEMP              0 ****  ****    0 ROOT


##########                                Name:    ZINC001707804910
##########                DOCK_Rotatable_Bonds:                   4
##########                         Heavy_Atoms:                  26
##########                    Molecular_Weight:             358.403
##########                DOCK_Rotatable_Bonds:                   4
##########                       Formal_Charge:          -0.0399996
##########                     HBond_Acceptors:                  10
##########                        HBond_Donors:                   0
##########                         Heavy_Atoms:                  26
##########                          Grid_Score:          -32.665070
##########                     Grid_vdw_energy:          -31.047760
##########                      Grid_es_energy:           -1.617311
##########           Internal_energy_repulsive:            8.956665

@<TRIPOS>MOLECULE
ZINC001707804910
 48 51 1 0 0
SMALL
USER_CHARGES


@<TRIPOS>ATOM
      1 C1         -7.3583    2.1674   56.9890 C.3     1  ZINC001707804910   -0.0700
      2 C2         -8.5234    1.4178   56.3961 C.2     1  ZINC001707804910    0.0700
      3 N3         -8.7594    1.2517   55.1200 N.2     1  ZINC001707804910   -0.2800
      4 N4         -9.9345    0.5008   54.9863 N.pl3   1  ZINC001707804910   -0.3700
      5 C5        -10.5555    0.0894   53.7248 C.3     1  ZINC001707804910    0.0900
      6 C6        -10.3933    0.2234   56.2247 C.2     1  ZINC001707804910    0.0500
      7 C7        -11.6346   -0.5640   56.5566 C.3     1  ZINC001707804910    0.1800
      8 N8        -11.2649   -1.9429   56.8852 N.pl3   1  ZINC001707804910   -0.4600
      9 C9        -11.2764   -3.0229   56.0466 C.2     1  ZINC001707804910    0.1900
     10 C10       -11.6757   -3.0210   54.5934 C.3     1  ZINC001707804910   -0.0700
     11 N11       -10.8773   -4.0535   56.7365 N.2     1  ZINC001707804910   -0.2800
     12 N12       -10.6165   -3.7010   57.9447 N.2     1  ZINC001707804910   -0.3000
     13 C13       -10.8322   -2.4149   58.0901 C.2     1  ZINC001707804910    0.3500
     14 N14       -10.6610   -1.6771   59.2507 N.3     1  ZINC001707804910   -0.4600
     15 C15        -9.5001   -2.1573   60.0140 C.3     1  ZINC001707804910    0.0200
     16 C16        -9.3125   -1.2790   61.2538 C.3     1  ZINC001707804910    0.0700
     17 O17       -10.5142   -1.2945   62.0291 O.3     1  ZINC001707804910   -0.3600
     18 C18       -11.6649   -0.8323   61.3167 C.3     1  ZINC001707804910    0.2000
     19 H19       -11.5121    0.2026   61.0106 H       1  ZINC001707804910    0.1000
     20 C20       -12.8771   -0.9196   62.2079 C.2     1  ZINC001707804910    0.1600
     21 N21       -13.8810   -1.7376   62.0658 N.2     1  ZINC001707804910   -0.2500
     22 N22       -14.7341   -1.5340   63.0072 N.2     1  ZINC001707804910   -0.2900
     23 C23       -14.3035   -0.5792   63.7818 C.2     1  ZINC001707804910    0.1700
     24 C24       -15.0039   -0.0350   65.0001 C.3     1  ZINC001707804910   -0.0600
     25 O25       -13.1180   -0.1721   63.2980 O.3     1  ZINC001707804910   -0.2200
     26 C26       -11.8763   -1.7061   60.0775 C.3     1  ZINC001707804910    0.0400
     27 C27        -9.5360    0.7742   57.1151 C.2     1  ZINC001707804910   -0.2300
     28 H28        -6.5234    1.4827   57.1375 H       1  ZINC001707804910    0.0800
     29 H29        -7.0571    2.9660   56.3109 H       1  ZINC001707804910    0.0700
     30 H30        -7.6517    2.5960   57.9473 H       1  ZINC001707804910    0.0800
     31 H31       -10.0817   -0.8250   53.3677 H       1  ZINC001707804910    0.0800
     32 H32       -11.6185   -0.0910   53.8851 H       1  ZINC001707804910    0.0900
     33 H33       -10.4286    0.8779   52.9831 H       1  ZINC001707804910    0.0900
     34 H34       -12.1359   -0.1087   57.4108 H       1  ZINC001707804910    0.1100
     35 H35       -12.3061   -0.5626   55.6981 H       1  ZINC001707804910    0.1200
     36 H36       -10.8242   -2.7199   53.9831 H       1  ZINC001707804910    0.0900
     37 H37       -11.9950   -4.0219   54.3031 H       1  ZINC001707804910    0.1000
     38 H38       -12.4966   -2.3198   54.4431 H       1  ZINC001707804910    0.0700
     39 H39        -9.6681   -3.1896   60.3212 H       1  ZINC001707804910    0.0700
     40 H40        -8.6072   -2.1032   59.3910 H       1  ZINC001707804910    0.0900
     41 H41        -8.4880   -1.6660   61.8527 H       1  ZINC001707804910    0.1200
     42 H42        -9.0911   -0.2571   60.9459 H       1  ZINC001707804910    0.0700
     43 H43       -14.6915   -0.5970   65.8802 H       1  ZINC001707804910    0.1000
     44 H44       -14.7448    1.0159   65.1291 H       1  ZINC001707804910    0.1000
     45 H45       -16.0822   -0.1302   64.8722 H       1  ZINC001707804910    0.1100
     46 H46       -12.7181   -1.3225   59.5009 H       1  ZINC001707804910    0.1000
     47 H47       -12.0824   -2.7311   60.3857 H       1  ZINC001707804910    0.0800
     48 H48        -9.6219    0.7302   58.1907 H       1  ZINC001707804910    0.1500
@<TRIPOS>BOND
     1     1     2    1
     2     1    28    1
     3     1    29    1
     4     1    30    1
     5     2    27    1
     6     2     3    2
     7     3     4    1
     8     4     5    1
     9     4     6    1
    10     5    31    1
    11     5    32    1
    12     5    33    1
    13     6     7    1
    14     6    27    2
    15     7     8    1
    16     7    34    1
    17     7    35    1
    18     8    13    1
    19     8     9    1
    20     9    10    1
    21     9    11    2
    22    10    36    1
    23    10    37    1
    24    10    38    1
    25    11    12    1
    26    12    13    2
    27    13    14    1
    28    14    26    1
    29    14    15    1
    30    15    16    1
    31    15    39    1
    32    15    40    1
    33    16    17    1
    34    16    41    1
    35    16    42    1
    36    17    18    1
    37    18    19    1
    38    18    20    1
    39    18    26    1
    40    20    25    1
    41    20    21    2
    42    21    22    1
    43    22    23    2
    44    23    24    1
    45    23    25    1
    46    24    43    1
    47    24    44    1
    48    24    45    1
    49    26    46    1
    50    26    47    1
    51    27    48    1
@<TRIPOS>SUBSTRUCTURE
     1 ZINC001707804910        1 TEMP              0 ****  ****    0 ROOT


##########                                Name:    ZINC000986832075
##########                DOCK_Rotatable_Bonds:                   7
##########                         Heavy_Atoms:                  25
##########                    Molecular_Weight:             347.433
##########                DOCK_Rotatable_Bonds:                   7
##########                       Formal_Charge:          -0.0200006
##########                     HBond_Acceptors:                   6
##########                        HBond_Donors:                   1
##########                         Heavy_Atoms:                  25
##########                          Grid_Score:          -32.655258
##########                     Grid_vdw_energy:          -32.328548
##########                      Grid_es_energy:           -0.326711
##########           Internal_energy_repulsive:           31.721773

@<TRIPOS>MOLECULE
ZINC000986832075
 51 53 1 0 0
SMALL
USER_CHARGES


@<TRIPOS>ATOM
      1 C1        -13.5336   -1.3341   52.7347 C.3     1  ZINC000986832075   -0.1700
      2 C2        -12.2355   -1.9584   53.2505 C.3     1  ZINC000986832075    0.1500
      3 H3        -11.9885   -2.8329   52.6485 H       1  ZINC000986832075    0.0900
      4 N4        -11.1509   -0.9782   53.1557 N.am    1  ZINC000986832075   -0.7200
      5 C5        -10.1108   -1.2020   52.3283 C.2     1  ZINC000986832075    0.5600
      6 O6        -10.0732   -2.2162   51.6599 O.2     1  ZINC000986832075   -0.5100
      7 C7         -9.0142   -0.2125   52.2339 C.ar    1  ZINC000986832075   -0.1300
      8 C8         -9.1926    1.1029   52.6743 C.ar    1  ZINC000986832075   -0.1100
      9 C9         -8.1427    1.9935   52.5675 C.ar    1  ZINC000986832075    0.0900
     10 N10        -6.9851    1.6201   52.0591 N.ar    1  ZINC000986832075   -0.4400
     11 C11        -6.7717    0.3923   51.6317 C.ar    1  ZINC000986832075    0.0700
     12 C12        -7.7663   -0.5686   51.7061 C.ar    1  ZINC000986832075    0.1100
     13 F13        -7.5405   -1.8257   51.2660 F       1  ZINC000986832075   -0.1000
     14 C14       -12.4166   -2.3790   54.7104 C.3     1  ZINC000986832075   -0.1000
     15 C15       -11.9364   -3.8211   54.8888 C.3     1  ZINC000986832075   -0.1300
     16 C16       -12.1513   -4.2503   56.3437 C.3     1  ZINC000986832075    0.1100
     17 N17       -11.4884   -3.2801   57.2257 N.am    1  ZINC000986832075   -0.6100
     18 C18       -10.6016   -3.6901   58.1541 C.2     1  ZINC000986832075    0.5200
     19 O19       -10.3441   -4.8697   58.2674 O.2     1  ZINC000986832075   -0.5300
     20 C20        -9.9300   -2.6826   59.0513 C.3     1  ZINC000986832075   -0.0800
     21 H21        -9.5190   -1.8744   58.4464 H       1  ZINC000986832075    0.0900
     22 C22        -8.8010   -3.3636   59.8276 C.3     1  ZINC000986832075   -0.1400
     23 C23       -10.9542   -2.1132   60.0351 C.3     1  ZINC000986832075   -0.1400
     24 C24       -10.4301   -1.2244   61.1649 C.3     1  ZINC000986832075   -0.1800
     25 C25       -11.2042   -0.6042   60.0000 C.3     1  ZINC000986832075   -0.1700
     26 C26       -11.8105   -1.8544   57.0761 C.3     1  ZINC000986832075    0.1000
     27 C27       -11.5994   -1.4521   55.6132 C.3     1  ZINC000986832075   -0.1300
     28 H28       -13.4045   -1.0346   51.6946 H       1  ZINC000986832075    0.0600
     29 H29       -14.3406   -2.0635   52.8053 H       1  ZINC000986832075    0.0700
     30 H30       -13.7806   -0.4597   53.3368 H       1  ZINC000986832075    0.0600
     31 H31       -11.1813   -0.1680   53.6884 H       1  ZINC000986832075    0.4000
     32 H32       -10.1377    1.4175   53.0916 H       1  ZINC000986832075    0.1500
     33 H33        -8.2720    3.0112   52.9053 H       1  ZINC000986832075    0.1700
     34 H34        -5.8073    0.1306   51.2219 H       1  ZINC000986832075    0.1800
     35 H35       -13.4707   -2.3115   54.9797 H       1  ZINC000986832075    0.0800
     36 H36       -12.5029   -4.4776   54.2284 H       1  ZINC000986832075    0.0700
     37 H37       -10.8763   -3.8845   54.6436 H       1  ZINC000986832075    0.0800
     38 H38       -13.2185   -4.2745   56.5637 H       1  ZINC000986832075    0.0700
     39 H39       -11.7213   -5.2396   56.5001 H       1  ZINC000986832075    0.0900
     40 H40        -9.1974   -4.2263   60.3631 H       1  ZINC000986832075    0.0600
     41 H41        -8.0282   -3.6912   59.1323 H       1  ZINC000986832075    0.0600
     42 H42        -8.3734   -2.6585   60.5404 H       1  ZINC000986832075    0.0700
     43 H43       -11.8040   -2.7593   60.2555 H       1  ZINC000986832075    0.1100
     44 H44       -10.9350   -1.2858   62.1290 H       1  ZINC000986832075    0.1000
     45 H45        -9.3557   -1.0454   61.2074 H       1  ZINC000986832075    0.0900
     46 H46       -10.6391   -0.0171   59.2761 H       1  ZINC000986832075    0.0900
     47 H47       -12.2185   -0.2574   60.1978 H       1  ZINC000986832075    0.1000
     48 H48       -12.8499   -1.6832   57.3559 H       1  ZINC000986832075    0.0700
     49 H49       -11.1555   -1.2627   57.7159 H       1  ZINC000986832075    0.0900
     50 H50       -10.5424   -1.5378   55.3611 H       1  ZINC000986832075    0.0800
     51 H51       -11.9261   -0.4223   55.4683 H       1  ZINC000986832075    0.0800
@<TRIPOS>BOND
     1     1     2    1
     2     1    28    1
     3     1    29    1
     4     1    30    1
     5     2     3    1
     6     2     4    1
     7     2    14    1
     8     4     5   am
     9     4    31    1
    10     5     6    2
    11     5     7    1
    12     7    12   ar
    13     7     8   ar
    14     8     9   ar
    15     8    32    1
    16     9    10   ar
    17     9    33    1
    18    10    11   ar
    19    11    12   ar
    20    11    34    1
    21    12    13    1
    22    14    27    1
    23    14    15    1
    24    14    35    1
    25    15    16    1
    26    15    36    1
    27    15    37    1
    28    16    17    1
    29    16    38    1
    30    16    39    1
    31    17    18   am
    32    17    26    1
    33    18    19    2
    34    18    20    1
    35    20    21    1
    36    20    22    1
    37    20    23    1
    38    22    40    1
    39    22    41    1
    40    22    42    1
    41    23    25    1
    42    23    24    1
    43    23    43    1
    44    24    25    1
    45    24    44    1
    46    24    45    1
    47    25    46    1
    48    25    47    1
    49    26    27    1
    50    26    48    1
    51    26    49    1
    52    27    50    1
    53    27    51    1
@<TRIPOS>SUBSTRUCTURE
     1 ZINC000986832075        1 TEMP              0 ****  ****    0 ROOT


##########                                Name:    ZINC000859202493
##########                DOCK_Rotatable_Bonds:                  11
##########                         Heavy_Atoms:                  25
##########                    Molecular_Weight:             382.404
##########                DOCK_Rotatable_Bonds:                  11
##########                       Formal_Charge:          -0.0200009
##########                     HBond_Acceptors:                  10
##########                        HBond_Donors:                   3
##########                         Heavy_Atoms:                  25
##########                          Grid_Score:          -32.631397
##########                     Grid_vdw_energy:          -31.747725
##########                      Grid_es_energy:           -0.883673
##########           Internal_energy_repulsive:           16.625528

@<TRIPOS>MOLECULE
ZINC000859202493
 46 46 1 0 0
SMALL
USER_CHARGES


@<TRIPOS>ATOM
      1 C1        -11.1843   -0.6382   52.6309 C.3     1  ZINC000859202493   -0.1500
      2 C2        -12.0594   -1.8862   52.4986 C.3     1  ZINC000859202493   -0.1200
      3 C3        -11.9012   -2.7548   53.7482 C.3     1  ZINC000859202493   -0.1000
      4 H4        -10.8522   -2.7792   54.0433 H       1  ZINC000859202493    0.0700
      5 C5        -12.3790   -4.1763   53.4451 C.3     1  ZINC000859202493   -0.1600
      6 C6        -12.7377   -2.1675   54.8868 C.3     1  ZINC000859202493   -0.1200
      7 C7        -11.9019   -2.1320   56.1679 C.3     1  ZINC000859202493    0.1600
      8 H8        -12.5586   -1.9904   57.0262 H       1  ZINC000859202493    0.1000
      9 C9        -10.9034   -0.9751   56.0935 C.3     1  ZINC000859202493    0.0500
     10 O10       -10.2807   -0.8006   57.3678 O.3     1  ZINC000859202493   -0.5700
     11 N11       -11.1751   -3.3957   56.3120 N.am    1  ZINC000859202493   -1.1000
     12 S12       -11.4306   -4.3509   57.6405 S.o2    1  ZINC000859202493    2.6900
     13 O13       -12.8329   -4.5681   57.7148 O.2     1  ZINC000859202493   -0.9500
     14 O14       -10.4834   -5.4074   57.5632 O.2     1  ZINC000859202493   -0.9500
     15 C15       -10.9988   -3.3983   59.0586 C.ar    1  ZINC000859202493   -0.6600
     16 C16        -9.7194   -3.4733   59.5773 C.ar    1  ZINC000859202493   -0.0300
     17 C17        -9.3767   -2.7276   60.6905 C.ar    1  ZINC000859202493   -0.1100
     18 C18       -10.3119   -1.9051   61.2872 C.ar    1  ZINC000859202493   -0.0600
     19 C19       -11.5978   -1.8273   60.7682 C.ar    1  ZINC000859202493    0.1200
     20 N20       -12.5476   -0.9946   61.3702 N.am    1  ZINC000859202493   -0.6500
     21 C21       -13.6051   -1.5312   62.0106 C.2     1  ZINC000859202493    0.4800
     22 O22       -13.7336   -2.7360   62.0651 O.2     1  ZINC000859202493   -0.4500
     23 C23       -14.6280   -0.6343   62.6589 C.3     1  ZINC000859202493    0.4600
     24 F24       -13.9759    0.3740   63.3767 F       1  ZINC000859202493   -0.1500
     25 F25       -15.4345   -0.0572   61.6721 F       1  ZINC000859202493   -0.1600
     26 F26       -15.4231   -1.3870   63.5297 F       1  ZINC000859202493   -0.1600
     27 C27       -11.9373   -2.5733   59.6474 C.ar    1  ZINC000859202493   -0.0300
     28 H28       -11.2970   -0.0195   51.7406 H       1  ZINC000859202493    0.0500
     29 H29       -11.4915   -0.0704   53.5092 H       1  ZINC000859202493    0.0500
     30 H30       -10.1411   -0.9355   52.7370 H       1  ZINC000859202493    0.0600
     31 H31       -13.1027   -1.5889   52.3925 H       1  ZINC000859202493    0.0600
     32 H32       -11.7522   -2.4540   51.6203 H       1  ZINC000859202493    0.0600
     33 H33       -12.2663   -4.7950   54.3354 H       1  ZINC000859202493    0.0500
     34 H34       -13.4280   -4.1518   53.1501 H       1  ZINC000859202493    0.0600
     35 H35       -11.7831   -4.5947   52.6340 H       1  ZINC000859202493    0.0600
     36 H36       -13.0462   -1.1551   54.6261 H       1  ZINC000859202493    0.0800
     37 H37       -13.6205   -2.7867   55.0459 H       1  ZINC000859202493    0.0800
     38 H38       -10.1431   -1.1989   55.3452 H       1  ZINC000859202493    0.0600
     39 H39       -11.4273   -0.0602   55.8168 H       1  ZINC000859202493    0.0600
     40 H40       -10.9040   -0.7277   58.1034 H       1  ZINC000859202493    0.3800
     41 H41       -10.5444   -3.6732   55.6293 H       1  ZINC000859202493    0.4200
     42 H42        -8.9862   -4.1157   59.1126 H       1  ZINC000859202493    0.1500
     43 H43        -8.3766   -2.7888   61.0938 H       1  ZINC000859202493    0.1400
     44 H44       -10.0437   -1.3234   62.1567 H       1  ZINC000859202493    0.1400
     45 H45       -12.4448   -0.0309   61.3267 H       1  ZINC000859202493    0.4200
     46 H46       -12.9364   -2.5150   59.2414 H       1  ZINC000859202493    0.1500
@<TRIPOS>BOND
     1     1     2    1
     2     1    28    1
     3     1    29    1
     4     1    30    1
     5     2     3    1
     6     2    31    1
     7     2    32    1
     8     3     4    1
     9     3     5    1
    10     3     6    1
    11     5    33    1
    12     5    34    1
    13     5    35    1
    14     6     7    1
    15     6    36    1
    16     6    37    1
    17     7     8    1
    18     7     9    1
    19     7    11    1
    20     9    10    1
    21     9    38    1
    22     9    39    1
    23    10    40    1
    24    11    12   am
    25    11    41    1
    26    12    13    2
    27    12    14    2
    28    12    15    1
    29    15    27   ar
    30    15    16   ar
    31    16    17   ar
    32    16    42    1
    33    17    18   ar
    34    17    43    1
    35    18    19   ar
    36    18    44    1
    37    19    20    1
    38    19    27   ar
    39    20    21   am
    40    20    45    1
    41    21    22    2
    42    21    23    1
    43    23    24    1
    44    23    25    1
    45    23    26    1
    46    27    46    1
@<TRIPOS>SUBSTRUCTURE
     1 ZINC000859202493        1 TEMP              0 ****  ****    0 ROOT


##########                                Name:    ZINC000494558165
##########                DOCK_Rotatable_Bonds:                  11
##########                         Heavy_Atoms:                  28
##########                    Molecular_Weight:             409.506
##########                DOCK_Rotatable_Bonds:                  11
##########                       Formal_Charge:        -6.55651e-07
##########                     HBond_Acceptors:                   9
##########                        HBond_Donors:                   3
##########                         Heavy_Atoms:                  28
##########                          Grid_Score:          -32.627369
##########                     Grid_vdw_energy:          -31.790337
##########                      Grid_es_energy:           -0.837032
##########           Internal_energy_repulsive:           29.848478

@<TRIPOS>MOLECULE
ZINC000494558165
 55 57 1 0 0
SMALL
USER_CHARGES


@<TRIPOS>ATOM
      1 O1         -8.3297    0.5412   57.5240 O.2     1  ZINC000494558165   -0.4400
      2 C2         -9.3006    0.0535   56.9862 C.2     1  ZINC000494558165    0.5100
      3 C3        -10.0897   -1.0219   57.6874 C.3     1  ZINC000494558165    0.0300
      4 N4        -10.2722   -0.6545   59.0980 N.3     1  ZINC000494558165   -0.5000
      5 C5        -11.1724    0.4989   59.2294 C.3     1  ZINC000494558165    0.0500
      6 C6        -10.5163    1.5596   60.1155 C.3     1  ZINC000494558165   -0.1100
      7 C7        -11.1463    1.5205   61.5092 C.3     1  ZINC000494558165    0.0800
      8 O8        -10.5714    2.5466   62.3207 O.3     1  ZINC000494558165   -0.5700
      9 C9        -10.7626   -1.7970   59.8804 C.3     1  ZINC000494558165    0.1200
     10 H10       -11.5002   -1.4654   60.6112 H       1  ZINC000494558165    0.1000
     11 C11        -9.5879   -2.5050   60.5884 C.3     1  ZINC000494558165   -0.1200
     12 C12        -9.1982   -3.5983   59.5710 C.3     1  ZINC000494558165   -0.0900
     13 C13       -10.4620   -3.8779   58.7865 C.ar    1  ZINC000494558165   -0.0900
     14 C14       -10.7987   -4.9524   57.9807 C.ar    1  ZINC000494558165   -0.1100
     15 C15       -12.0294   -4.9929   57.3544 C.ar    1  ZINC000494558165   -0.1100
     16 C16       -12.9282   -3.9581   57.5322 C.ar    1  ZINC000494558165   -0.1200
     17 C17       -12.5941   -2.8852   58.3358 C.ar    1  ZINC000494558165   -0.1000
     18 C18       -11.3635   -2.8416   58.9645 C.ar    1  ZINC000494558165   -0.1300
     19 N19        -9.6775    0.4771   55.7635 N.am    1  ZINC000494558165   -0.6900
     20 C20        -8.9717    1.4390   55.1364 C.2     1  ZINC000494558165    0.7000
     21 O21        -7.9964    1.9255   55.6741 O.2     1  ZINC000494558165   -0.5200
     22 N22        -9.3477    1.8615   53.9130 N.am    1  ZINC000494558165   -0.7300
     23 C23        -8.5795    2.9057   53.2305 C.3     1  ZINC000494558165    0.1700
     24 H24        -8.3596    3.7139   53.9282 H       1  ZINC000494558165    0.1200
     25 C25        -7.2646    2.3135   52.6938 C.3     1  ZINC000494558165   -0.1400
     26 C26        -6.6726    3.3613   51.7162 C.3     1  ZINC000494558165   -0.5800
     27 S27        -8.1500    3.9166   50.7843 S.o2    1  ZINC000494558165    2.4000
     28 O28        -8.1174    5.3308   50.6492 O.2     1  ZINC000494558165   -0.9300
     29 O29        -8.3158    3.0993   49.6338 O.2     1  ZINC000494558165   -0.9300
     30 C30        -9.3931    3.4543   52.0416 C.3     1  ZINC000494558165   -0.6200
     31 H31       -11.0642   -1.1271   57.2104 H       1  ZINC000494558165    0.0700
     32 H32        -9.5507   -1.9673   57.6250 H       1  ZINC000494558165    0.1200
     33 H33       -11.3695    0.9202   58.2436 H       1  ZINC000494558165    0.0900
     34 H34       -12.1108    0.1776   59.6814 H       1  ZINC000494558165    0.0400
     35 H35        -9.4480    1.3575   60.1938 H       1  ZINC000494558165    0.0700
     36 H36       -10.6684    2.5452   59.6756 H       1  ZINC000494558165    0.0800
     37 H37       -12.2212    1.6819   61.4268 H       1  ZINC000494558165    0.0500
     38 H38       -10.9587    0.5486   61.9656 H       1  ZINC000494558165    0.0400
     39 H39        -9.6107    2.6207   62.2392 H       1  ZINC000494558165    0.3800
     40 H40        -8.7605   -1.8143   60.7508 H       1  ZINC000494558165    0.0900
     41 H41        -9.9136   -2.9493   61.5290 H       1  ZINC000494558165    0.0800
     42 H42        -8.4136   -3.2349   58.9074 H       1  ZINC000494558165    0.0800
     43 H43        -8.8686   -4.4980   60.0905 H       1  ZINC000494558165    0.0800
     44 H44       -10.0968   -5.7612   57.8410 H       1  ZINC000494558165    0.1200
     45 H45       -12.2891   -5.8326   56.7268 H       1  ZINC000494558165    0.1300
     46 H46       -13.8906   -3.9880   57.0430 H       1  ZINC000494558165    0.1200
     47 H47       -13.2968   -2.0768   58.4740 H       1  ZINC000494558165    0.1200
     48 H48       -10.4567    0.0898   55.3348 H       1  ZINC000494558165    0.4100
     49 H49       -10.1268    1.4741   53.4844 H       1  ZINC000494558165    0.4000
     50 H50        -6.5715    2.1369   53.5164 H       1  ZINC000494558165    0.1100
     51 H51        -7.4634    1.3808   52.1658 H       1  ZINC000494558165    0.0900
     52 H52        -6.2256    4.1915   52.2632 H       1  ZINC000494558165    0.1400
     53 H53        -5.9450    2.8999   51.0486 H       1  ZINC000494558165    0.1400
     54 H54       -10.0594    2.6856   51.6502 H       1  ZINC000494558165    0.1500
     55 H55        -9.9639    4.3304   52.3494 H       1  ZINC000494558165    0.1500
@<TRIPOS>BOND
     1     1     2    2
     2     2     3    1
     3     2    19   am
     4     3     4    1
     5     3    31    1
     6     3    32    1
     7     4     5    1
     8     4     9    1
     9     5     6    1
    10     5    33    1
    11     5    34    1
    12     6     7    1
    13     6    35    1
    14     6    36    1
    15     7     8    1
    16     7    37    1
    17     7    38    1
    18     8    39    1
    19     9    10    1
    20     9    18    1
    21     9    11    1
    22    11    12    1
    23    11    40    1
    24    11    41    1
    25    12    13    1
    26    12    42    1
    27    12    43    1
    28    13    18   ar
    29    13    14   ar
    30    14    15   ar
    31    14    44    1
    32    15    16   ar
    33    15    45    1
    34    16    17   ar
    35    16    46    1
    36    17    18   ar
    37    17    47    1
    38    19    20   am
    39    19    48    1
    40    20    21    2
    41    20    22   am
    42    22    23    1
    43    22    49    1
    44    23    24    1
    45    23    30    1
    46    23    25    1
    47    25    26    1
    48    25    50    1
    49    25    51    1
    50    26    27    1
    51    26    52    1
    52    26    53    1
    53    27    28    2
    54    27    29    2
    55    27    30    1
    56    30    54    1
    57    30    55    1
@<TRIPOS>SUBSTRUCTURE
     1 ZINC000494558165        1 TEMP              0 ****  ****    0 ROOT


##########                                Name:    ZINC000894043060
##########                DOCK_Rotatable_Bonds:                  11
##########                         Heavy_Atoms:                  26
##########                    Molecular_Weight:             396.812
##########                DOCK_Rotatable_Bonds:                  11
##########                       Formal_Charge:          -0.0199999
##########                     HBond_Acceptors:                   9
##########                        HBond_Donors:                   2
##########                         Heavy_Atoms:                  26
##########                          Grid_Score:          -32.625912
##########                     Grid_vdw_energy:          -32.615585
##########                      Grid_es_energy:           -0.010325
##########           Internal_energy_repulsive:           14.733479

@<TRIPOS>MOLECULE
ZINC000894043060
 47 47 1 0 0
SMALL
USER_CHARGES


@<TRIPOS>ATOM
      1 C1        -10.2498    0.9880   54.2450 C.3     1  ZINC000894043060   -0.1700
      2 C2        -10.3199   -0.2457   53.3426 C.3     1  ZINC000894043060    0.1000
      3 H3        -11.1433   -0.1336   52.6373 H       1  ZINC000894043060    0.1100
      4 N4        -10.5392   -1.4392   54.1634 N.am    1  ZINC000894043060   -0.7300
      5 C5        -11.1766   -2.5068   53.6435 C.2     1  ZINC000894043060    0.5200
      6 O6        -11.5701   -2.4789   52.4966 O.2     1  ZINC000894043060   -0.5200
      7 C7        -11.4006   -3.7352   54.4872 C.3     1  ZINC000894043060   -0.1400
      8 C8        -12.3450   -3.3954   55.6421 C.3     1  ZINC000894043060   -0.0200
      9 C9        -13.3931   -4.5007   55.7858 C.3     1  ZINC000894043060   -0.1400
     10 C10       -14.1765   -4.2881   57.0555 C.2     1  ZINC000894043060    0.5200
     11 O11       -14.2444   -5.1736   57.8815 O.2     1  ZINC000894043060   -0.5200
     12 N12       -14.8016   -3.1140   57.2731 N.am    1  ZINC000894043060   -0.7300
     13 C13       -15.5616   -2.9068   58.5082 C.3     1  ZINC000894043060    0.1000
     14 H14       -15.9372   -3.8644   58.8688 H       1  ZINC000894043060    0.1200
     15 C15       -14.6514   -2.2839   59.5687 C.3     1  ZINC000894043060   -0.1700
     16 C16       -16.7384   -1.9690   58.2316 C.3     1  ZINC000894043060    0.2600
     17 F17       -17.5706   -2.5384   57.2619 F       1  ZINC000894043060   -0.1900
     18 F18       -17.4642   -1.7710   59.4110 F       1  ZINC000894043060   -0.2000
     19 C19       -11.5551   -3.2829   56.9205 C.ar    1  ZINC000894043060   -0.0600
     20 C20       -11.3846   -2.0494   57.5210 C.ar    1  ZINC000894043060   -0.1200
     21 C21       -10.6602   -1.9456   58.6935 C.ar    1  ZINC000894043060   -0.1200
     22 C22       -10.1056   -3.0764   59.2662 C.ar    1  ZINC000894043060   -0.0400
     23 Cl23       -9.1961   -2.9468   60.7392 Cl      1  ZINC000894043060   -0.0800
     24 C24       -10.2767   -4.3106   58.6648 C.ar    1  ZINC000894043060   -0.1100
     25 C25       -11.0060   -4.4140   57.4953 C.ar    1  ZINC000894043060   -0.0400
     26 C26        -9.0053   -0.3901   52.5733 C.3     1  ZINC000894043060    0.2600
     27 F27        -9.0695   -1.5181   51.7482 F       1  ZINC000894043060   -0.2000
     28 F28        -8.7959    0.7497   51.7897 F       1  ZINC000894043060   -0.1900
     29 H29        -9.4264    0.8759   54.9504 H       1  ZINC000894043060    0.0600
     30 H30       -10.0868    1.8760   53.6343 H       1  ZINC000894043060    0.0800
     31 H31       -11.1863    1.0909   54.7931 H       1  ZINC000894043060    0.0800
     32 H32       -10.2256   -1.4610   55.0811 H       1  ZINC000894043060    0.4000
     33 H33       -11.8433   -4.5207   53.8750 H       1  ZINC000894043060    0.1000
     34 H34       -10.4471   -4.0800   54.8872 H       1  ZINC000894043060    0.1000
     35 H35       -12.8424   -2.4473   55.4377 H       1  ZINC000894043060    0.1000
     36 H36       -14.0703   -4.4725   54.9321 H       1  ZINC000894043060    0.1000
     37 H37       -12.8962   -5.4701   55.8234 H       1  ZINC000894043060    0.1000
     38 H38       -14.7482   -2.4063   56.6119 H       1  ZINC000894043060    0.4000
     39 H39       -14.2759   -1.3263   59.2081 H       1  ZINC000894043060    0.0700
     40 H40       -15.2170   -2.1296   60.4877 H       1  ZINC000894043060    0.0800
     41 H41       -13.8131   -2.9520   59.7658 H       1  ZINC000894043060    0.0700
     42 H42       -16.3628   -1.0113   57.8710 H       1  ZINC000894043060    0.1200
     43 H43       -11.8171   -1.1668   57.0737 H       1  ZINC000894043060    0.1200
     44 H44       -10.5267   -0.9819   59.1624 H       1  ZINC000894043060    0.1300
     45 H45        -9.8437   -5.1935   59.1112 H       1  ZINC000894043060    0.1300
     46 H46       -11.1398   -5.3774   57.0259 H       1  ZINC000894043060    0.1300
     47 H47        -8.1820   -0.5024   53.2787 H       1  ZINC000894043060    0.1100
@<TRIPOS>BOND
     1     1     2    1
     2     1    29    1
     3     1    30    1
     4     1    31    1
     5     2     3    1
     6     2     4    1
     7     2    26    1
     8     4     5   am
     9     4    32    1
    10     5     6    2
    11     5     7    1
    12     7     8    1
    13     7    33    1
    14     7    34    1
    15     8     9    1
    16     8    19    1
    17     8    35    1
    18     9    10    1
    19     9    36    1
    20     9    37    1
    21    10    11    2
    22    10    12   am
    23    12    13    1
    24    12    38    1
    25    13    14    1
    26    13    15    1
    27    13    16    1
    28    15    39    1
    29    15    40    1
    30    15    41    1
    31    16    17    1
    32    16    18    1
    33    16    42    1
    34    19    25   ar
    35    19    20   ar
    36    20    21   ar
    37    20    43    1
    38    21    22   ar
    39    21    44    1
    40    22    23    1
    41    22    24   ar
    42    24    25   ar
    43    24    45    1
    44    25    46    1
    45    26    27    1
    46    26    28    1
    47    26    47    1
@<TRIPOS>SUBSTRUCTURE
     1 ZINC000894043060        1 TEMP              0 ****  ****    0 ROOT


##########                                Name:    ZINC000433533595
##########                DOCK_Rotatable_Bonds:                  10
##########                         Heavy_Atoms:                  24
##########                    Molecular_Weight:             397.312
##########                DOCK_Rotatable_Bonds:                  10
##########                       Formal_Charge:          0.00999916
##########                     HBond_Acceptors:                   5
##########                        HBond_Donors:                   1
##########                         Heavy_Atoms:                  24
##########                          Grid_Score:          -32.602573
##########                     Grid_vdw_energy:          -32.279022
##########                      Grid_es_energy:           -0.323553
##########           Internal_energy_repulsive:           18.660315

@<TRIPOS>MOLECULE
ZINC000433533595
 49 50 1 0 0
SMALL
USER_CHARGES


@<TRIPOS>ATOM
      1 C1        -13.2652   -0.1027   63.2819 C.3     1  ZINC000433533595   -0.1500
      2 C2        -11.7901    0.1569   62.9693 C.3     1  ZINC000433533595   -0.1200
      3 C3        -11.5159   -0.1653   61.4989 C.3     1  ZINC000433533595   -0.1300
      4 C4        -10.0451    0.1121   61.1818 C.3     1  ZINC000433533595    0.1000
      5 N5         -9.7465   -0.3358   59.8192 N.am    1  ZINC000433533595   -0.5500
      6 C6        -10.1291    0.4118   58.7651 C.2     1  ZINC000433533595    0.5100
      7 O7        -10.7209    1.4560   58.9446 O.2     1  ZINC000433533595   -0.5100
      8 C8         -9.8247   -0.0447   57.3762 C.2     1  ZINC000433533595    0.5000
      9 O9         -8.6783   -0.2764   57.0510 O.2     1  ZINC000433533595   -0.4900
     10 N10       -10.8227   -0.1993   56.4837 N.am    1  ZINC000433533595   -0.6300
     11 C11       -10.5376   -0.6269   55.1828 C.ar    1  ZINC000433533595    0.1200
     12 C12        -9.5634    0.0197   54.4358 C.ar    1  ZINC000433533595   -0.0600
     13 C13        -9.2836   -0.4052   53.1499 C.ar    1  ZINC000433533595   -0.1100
     14 Br14       -7.9552    0.4767   52.1333 Br      1  ZINC000433533595   -0.0400
     15 C15        -9.9729   -1.4741   52.6058 C.ar    1  ZINC000433533595   -0.0600
     16 C16       -10.9450   -2.1231   53.3446 C.ar    1  ZINC000433533595   -0.1900
     17 C17       -11.2274   -1.7075   54.6353 C.ar    1  ZINC000433533595    0.1300
     18 O18       -12.1832   -2.3451   55.3627 O.3     1  ZINC000433533595   -0.3100
     19 C19       -12.2373   -3.7691   55.2563 C.3     1  ZINC000433533595    0.0800
     20 C20       -12.2206   -4.3861   56.6563 C.3     1  ZINC000433533595   -0.1500
     21 C21       -13.5226   -4.1781   54.5340 C.3     1  ZINC000433533595   -0.1800
     22 C22        -9.0321   -1.5963   59.6025 C.3     1  ZINC000433533595    0.0600
     23 C23        -9.3012   -2.7385   60.5842 C.3     1  ZINC000433533595   -0.1900
     24 C24        -9.8551   -2.8077   59.1597 C.3     1  ZINC000433533595   -0.1800
     25 H25       -13.4985   -1.1499   63.0898 H       1  ZINC000433533595    0.0500
     26 H26       -13.4605    0.1269   64.3294 H       1  ZINC000433533595    0.0500
     27 H27       -13.8874    0.5302   62.6490 H       1  ZINC000433533595    0.0500
     28 H28       -11.5568    1.2042   63.1614 H       1  ZINC000433533595    0.0700
     29 H29       -11.1678   -0.4759   63.6022 H       1  ZINC000433533595    0.0600
     30 H30       -11.7365   -1.2159   61.3100 H       1  ZINC000433533595    0.0600
     31 H31       -12.1478    0.4581   60.8665 H       1  ZINC000433533595    0.0700
     32 H32        -9.8512    1.1816   61.2634 H       1  ZINC000433533595    0.1100
     33 H33        -9.4133   -0.4266   61.8879 H       1  ZINC000433533595    0.0800
     34 H34       -11.7387   -0.0140   56.7436 H       1  ZINC000433533595    0.4300
     35 H35        -9.0242    0.8546   54.8583 H       1  ZINC000433533595    0.1600
     36 H36        -9.7513   -1.8023   51.6010 H       1  ZINC000433533595    0.1400
     37 H37       -11.4812   -2.9572   52.9166 H       1  ZINC000433533595    0.1500
     38 H38       -11.3748   -4.1243   54.6923 H       1  ZINC000433533595    0.0800
     39 H39       -13.0831   -4.0308   57.2202 H       1  ZINC000433533595    0.0700
     40 H40       -12.2618   -5.4723   56.5751 H       1  ZINC000433533595    0.0800
     41 H41       -11.3049   -4.0947   57.1709 H       1  ZINC000433533595    0.0700
     42 H42       -14.3850   -3.8228   55.0980 H       1  ZINC000433533595    0.0700
     43 H43       -13.5345   -3.7385   53.5367 H       1  ZINC000433533595    0.0600
     44 H44       -13.5638   -5.2643   54.4529 H       1  ZINC000433533595    0.0800
     45 H45        -8.0217   -1.5017   59.2048 H       1  ZINC000433533595    0.1400
     46 H46        -8.4677   -3.3955   60.8326 H       1  ZINC000433533595    0.0900
     47 H47       -10.0098   -2.5521   61.3912 H       1  ZINC000433533595    0.1400
     48 H48       -10.9281   -2.6667   59.0295 H       1  ZINC000433533595    0.1000
     49 H49        -9.3860   -3.5102   58.4708 H       1  ZINC000433533595    0.1000
@<TRIPOS>BOND
     1     1     2    1
     2     1    25    1
     3     1    26    1
     4     1    27    1
     5     2     3    1
     6     2    28    1
     7     2    29    1
     8     3     4    1
     9     3    30    1
    10     3    31    1
    11     4     5    1
    12     4    32    1
    13     4    33    1
    14     5     6   am
    15     5    22    1
    16     6     7    2
    17     6     8    1
    18     8     9    2
    19     8    10   am
    20    10    11    1
    21    10    34    1
    22    11    17   ar
    23    11    12   ar
    24    12    13   ar
    25    12    35    1
    26    13    14    1
    27    13    15   ar
    28    15    16   ar
    29    15    36    1
    30    16    17   ar
    31    16    37    1
    32    17    18    1
    33    18    19    1
    34    19    20    1
    35    19    21    1
    36    19    38    1
    37    20    39    1
    38    20    40    1
    39    20    41    1
    40    21    42    1
    41    21    43    1
    42    21    44    1
    43    22    24    1
    44    22    23    1
    45    22    45    1
    46    23    24    1
    47    23    46    1
    48    23    47    1
    49    24    48    1
    50    24    49    1
@<TRIPOS>SUBSTRUCTURE
     1 ZINC000433533595        1 TEMP              0 ****  ****    0 ROOT


##########                                Name:    ZINC000680410869
##########                DOCK_Rotatable_Bonds:                   6
##########                         Heavy_Atoms:                  24
##########                    Molecular_Weight:             335.354
##########                DOCK_Rotatable_Bonds:                   6
##########                       Formal_Charge:        -1.04308e-07
##########                     HBond_Acceptors:                   7
##########                        HBond_Donors:                   0
##########                         Heavy_Atoms:                  24
##########                          Grid_Score:          -32.601799
##########                     Grid_vdw_energy:          -31.462059
##########                      Grid_es_energy:           -1.139739
##########           Internal_energy_repulsive:           10.141217

@<TRIPOS>MOLECULE
ZINC000680410869
 43 45 1 0 0
SMALL
USER_CHARGES


@<TRIPOS>ATOM
      1 O1        -12.5035   -2.5128   51.5905 O.2     1  ZINC000680410869   -0.5200
      2 C2        -11.7994   -2.3433   52.5669 C.2     1  ZINC000680410869    0.6100
      3 C3        -10.8020   -1.2539   52.5780 C.2     1  ZINC000680410869    0.0100
      4 N4         -9.5757   -1.3082   52.0978 N.2     1  ZINC000680410869   -0.2500
      5 N5         -8.9831   -0.1819   52.2733 N.pl3   1  ZINC000680410869   -0.3500
      6 C6         -7.6092    0.1151   51.8608 C.3     1  ZINC000680410869    0.5000
      7 F7         -7.0357   -1.0272   51.2920 F       1  ZINC000680410869   -0.1600
      8 F8         -7.6181    1.1503   50.9199 F       1  ZINC000680410869   -0.1700
      9 C9         -9.8092    0.6888   52.8919 C.2     1  ZINC000680410869    0.0100
     10 C10       -10.9833    0.0485   53.1009 C.2     1  ZINC000680410869   -0.1700
     11 N11       -11.9327   -3.1459   53.6414 N.am    1  ZINC000680410869   -0.6000
     12 C12       -12.9193   -4.2376   53.6538 C.3     1  ZINC000680410869    0.0800
     13 C13       -13.7458   -4.1279   54.9401 C.3     1  ZINC000680410869    0.0500
     14 O14       -12.8630   -4.0573   56.0623 O.3     1  ZINC000680410869   -0.3700
     15 C15       -12.0111   -2.9092   56.0655 C.3     1  ZINC000680410869    0.0800
     16 H16       -12.6188   -2.0048   56.0322 H       1  ZINC000680410869    0.0600
     17 C17       -11.1611   -2.9071   57.3377 C.3     1  ZINC000680410869   -0.1000
     18 C18       -10.5606   -1.5156   57.5476 C.3     1  ZINC000680410869   -0.0800
     19 C19       -10.0316   -1.4037   58.9543 C.ar    1  ZINC000680410869   -0.0800
     20 C20        -9.4032   -2.4844   59.5442 C.ar    1  ZINC000680410869   -0.1200
     21 C21        -8.9180   -2.3818   60.8345 C.ar    1  ZINC000680410869   -0.1200
     22 C22        -9.0607   -1.1984   61.5347 C.ar    1  ZINC000680410869   -0.1300
     23 C23        -9.6884   -0.1175   60.9443 C.ar    1  ZINC000680410869   -0.1200
     24 C24       -10.1698   -0.2187   59.6525 C.ar    1  ZINC000680410869   -0.1200
     25 C25       -11.0918   -2.9601   54.8346 C.3     1  ZINC000680410869    0.0600
     26 H26        -7.0266    0.4195   52.7304 H       1  ZINC000680410869    0.1700
     27 H27        -9.5777    1.7078   53.1652 H       1  ZINC000680410869    0.1900
     28 H28       -11.8698    0.4459   53.5725 H       1  ZINC000680410869    0.1700
     29 H29       -13.5749   -4.1497   52.7875 H       1  ZINC000680410869    0.1000
     30 H30       -12.4043   -5.1980   53.6291 H       1  ZINC000680410869    0.0800
     31 H31       -14.3598   -3.2280   54.9027 H       1  ZINC000680410869    0.0600
     32 H32       -14.3876   -5.0037   55.0363 H       1  ZINC000680410869    0.1100
     33 H33       -11.7858   -3.1660   58.1926 H       1  ZINC000680410869    0.0800
     34 H34       -10.3586   -3.6381   57.2396 H       1  ZINC000680410869    0.0800
     35 H35        -9.7463   -1.3608   56.8398 H       1  ZINC000680410869    0.0700
     36 H36       -11.3298   -0.7601   57.3874 H       1  ZINC000680410869    0.0800
     37 H37        -9.2916   -3.4090   58.9973 H       1  ZINC000680410869    0.1200
     38 H38        -8.4275   -3.2263   61.2958 H       1  ZINC000680410869    0.1200
     39 H39        -8.6823   -1.1185   62.5431 H       1  ZINC000680410869    0.1200
     40 H40        -9.8003    0.8070   61.4914 H       1  ZINC000680410869    0.1200
     41 H41       -10.6602    0.6257   59.1912 H       1  ZINC000680410869    0.1200
     42 H42       -10.3940   -3.7917   54.9318 H       1  ZINC000680410869    0.0800
     43 H43       -10.5391   -2.0243   54.7503 H       1  ZINC000680410869    0.1300
@<TRIPOS>BOND
     1     1     2    2
     2     2     3    1
     3     2    11   am
     4     3    10    1
     5     3     4    2
     6     4     5    1
     7     5     6    1
     8     5     9    1
     9     6     7    1
    10     6     8    1
    11     6    26    1
    12     9    10    2
    13     9    27    1
    14    10    28    1
    15    11    25    1
    16    11    12    1
    17    12    13    1
    18    12    29    1
    19    12    30    1
    20    13    14    1
    21    13    31    1
    22    13    32    1
    23    14    15    1
    24    15    16    1
    25    15    17    1
    26    15    25    1
    27    17    18    1
    28    17    33    1
    29    17    34    1
    30    18    19    1
    31    18    35    1
    32    18    36    1
    33    19    24   ar
    34    19    20   ar
    35    20    21   ar
    36    20    37    1
    37    21    22   ar
    38    21    38    1
    39    22    23   ar
    40    22    39    1
    41    23    24   ar
    42    23    40    1
    43    24    41    1
    44    25    42    1
    45    25    43    1
@<TRIPOS>SUBSTRUCTURE
     1 ZINC000680410869        1 TEMP              0 ****  ****    0 ROOT


##########                                Name:    ZINC000537799672
##########                DOCK_Rotatable_Bonds:                   9
##########                         Heavy_Atoms:                  29
##########                    Molecular_Weight:             401.478
##########                DOCK_Rotatable_Bonds:                   9
##########                       Formal_Charge:        -4.47035e-07
##########                     HBond_Acceptors:                   6
##########                        HBond_Donors:                   1
##########                         Heavy_Atoms:                  29
##########                          Grid_Score:          -32.578934
##########                     Grid_vdw_energy:          -31.605967
##########                      Grid_es_energy:           -0.972968
##########           Internal_energy_repulsive:           12.313143

@<TRIPOS>MOLECULE
ZINC000537799672
 57 59 1 0 0
SMALL
USER_CHARGES


@<TRIPOS>ATOM
      1 C1        -15.8668   -2.4897   57.2652 C.3     1  ZINC000537799672    0.0300
      2 O2        -14.7847   -2.3512   56.3422 O.3     1  ZINC000537799672   -0.3800
      3 C3        -14.6513   -3.4466   55.4343 C.3     1  ZINC000537799672    0.1200
      4 H4        -15.5579   -4.0511   55.4584 H       1  ZINC000537799672    0.0900
      5 C5        -14.4361   -2.9193   54.0390 C.ar    1  ZINC000537799672   -0.1300
      6 C6        -13.2484   -2.2910   53.7136 C.ar    1  ZINC000537799672   -0.0600
      7 C7        -13.0499   -1.8071   52.4344 C.ar    1  ZINC000537799672   -0.1500
      8 C8        -14.0410   -1.9518   51.4785 C.ar    1  ZINC000537799672    0.1000
      9 F9        -13.8479   -1.4795   50.2276 F       1  ZINC000537799672   -0.1400
     10 C10       -15.2300   -2.5816   51.8055 C.ar    1  ZINC000537799672   -0.1500
     11 C11       -15.4243   -3.0690   53.0839 C.ar    1  ZINC000537799672   -0.0800
     12 C12       -13.4541   -4.3064   55.8447 C.3     1  ZINC000537799672    0.1600
     13 H13       -12.7860   -4.4296   54.9923 H       1  ZINC000537799672    0.1000
     14 C14       -13.9470   -5.6784   56.3090 C.3     1  ZINC000537799672   -0.1600
     15 N15       -12.7339   -3.6503   56.9389 N.am    1  ZINC000537799672   -0.7100
     16 C16       -11.3878   -3.5877   56.9175 C.2     1  ZINC000537799672    0.5600
     17 O17       -10.7714   -4.0742   55.9898 O.2     1  ZINC000537799672   -0.5400
     18 C18       -10.6609   -2.9271   58.0225 C.ar    1  ZINC000537799672   -0.1400
     19 C19       -10.0274   -3.6937   59.0017 C.ar    1  ZINC000537799672   -0.0800
     20 C20        -9.3503   -3.0710   60.0300 C.ar    1  ZINC000537799672   -0.1300
     21 C21        -9.2988   -1.6899   60.0921 C.ar    1  ZINC000537799672   -0.0900
     22 C22        -9.9251   -0.9240   59.1246 C.ar    1  ZINC000537799672   -0.1100
     23 C23       -10.6002   -1.5340   58.0878 C.ar    1  ZINC000537799672   -0.0300
     24 C24       -11.2813   -0.6983   57.0348 C.3     1  ZINC000537799672    0.1100
     25 O25       -10.3393   -0.3545   56.0168 O.3     1  ZINC000537799672   -0.3800
     26 C26        -9.8967    1.0033   56.0691 C.3     1  ZINC000537799672    0.0900
     27 C27        -8.3688    1.0485   55.9696 C.3     1  ZINC000537799672   -0.1800
     28 C28        -7.9096    2.5086   55.9471 C.3     1  ZINC000537799672    0.0600
     29 O29        -8.5284    3.1844   54.8504 O.3     1  ZINC000537799672   -0.3800
     30 C30        -9.9556    3.2154   54.9146 C.3     1  ZINC000537799672    0.0600
     31 C31       -10.4971    1.7835   54.8956 C.3     1  ZINC000537799672   -0.1500
     32 H32       -15.7608   -3.4271   57.8111 H       1  ZINC000537799672    0.0500
     33 H33       -15.8540   -1.6565   57.9677 H       1  ZINC000537799672    0.0900
     34 H34       -16.8110   -2.4913   56.7205 H       1  ZINC000537799672    0.0400
     35 H35       -12.4754   -2.1782   54.4594 H       1  ZINC000537799672    0.1300
     36 H36       -12.1222   -1.3158   52.1807 H       1  ZINC000537799672    0.1400
     37 H37       -16.0039   -2.6948   51.0606 H       1  ZINC000537799672    0.1400
     38 H38       -16.3515   -3.5606   53.3391 H       1  ZINC000537799672    0.1300
     39 H39       -14.5622   -6.1266   55.5288 H       1  ZINC000537799672    0.0700
     40 H40       -13.0912   -6.3224   56.5117 H       1  ZINC000537799672    0.0600
     41 H41       -14.5386   -5.5637   57.2172 H       1  ZINC000537799672    0.0700
     42 H42       -13.2259   -3.2610   57.6786 H       1  ZINC000537799672    0.4000
     43 H43       -10.0675   -4.7719   58.9548 H       1  ZINC000537799672    0.1300
     44 H44        -8.8596   -3.6631   60.7884 H       1  ZINC000537799672    0.1300
     45 H45        -8.7677   -1.2075   60.8993 H       1  ZINC000537799672    0.1300
     46 H46        -9.8815    0.1537   59.1789 H       1  ZINC000537799672    0.1400
     47 H47       -12.1012   -1.2658   56.5947 H       1  ZINC000537799672    0.0800
     48 H48       -11.6726    0.2116   57.4901 H       1  ZINC000537799672    0.0800
     49 H49       -10.2157    1.4548   57.0085 H       1  ZINC000537799672    0.0600
     50 H50        -7.9326    0.5426   56.8309 H       1  ZINC000537799672    0.0800
     51 H51        -8.0487    0.5518   55.0537 H       1  ZINC000537799672    0.0800
     52 H52        -8.1947    2.9938   56.8806 H       1  ZINC000537799672    0.0500
     53 H53        -6.8262    2.5472   55.8333 H       1  ZINC000537799672    0.1000
     54 H54       -10.2676    3.7097   55.8347 H       1  ZINC000537799672    0.0500
     55 H55       -10.3463    3.7631   54.0570 H       1  ZINC000537799672    0.1000
     56 H56       -10.2199    1.3017   53.9580 H       1  ZINC000537799672    0.0800
     57 H57       -11.5829    1.8034   54.9889 H       1  ZINC000537799672    0.0800
@<TRIPOS>BOND
     1     1     2    1
     2     1    32    1
     3     1    33    1
     4     1    34    1
     5     2     3    1
     6     3     4    1
     7     3     5    1
     8     3    12    1
     9     5    11   ar
    10     5     6   ar
    11     6     7   ar
    12     6    35    1
    13     7     8   ar
    14     7    36    1
    15     8     9    1
    16     8    10   ar
    17    10    11   ar
    18    10    37    1
    19    11    38    1
    20    12    13    1
    21    12    14    1
    22    12    15    1
    23    14    39    1
    24    14    40    1
    25    14    41    1
    26    15    16   am
    27    15    42    1
    28    16    17    2
    29    16    18    1
    30    18    23   ar
    31    18    19   ar
    32    19    20   ar
    33    19    43    1
    34    20    21   ar
    35    20    44    1
    36    21    22   ar
    37    21    45    1
    38    22    23   ar
    39    22    46    1
    40    23    24    1
    41    24    25    1
    42    24    47    1
    43    24    48    1
    44    25    26    1
    45    26    31    1
    46    26    27    1
    47    26    49    1
    48    27    28    1
    49    27    50    1
    50    27    51    1
    51    28    29    1
    52    28    52    1
    53    28    53    1
    54    29    30    1
    55    30    31    1
    56    30    54    1
    57    30    55    1
    58    31    56    1
    59    31    57    1
@<TRIPOS>SUBSTRUCTURE
     1 ZINC000537799672        1 TEMP              0 ****  ****    0 ROOT


##########                                Name:    ZINC000279593480
##########                DOCK_Rotatable_Bonds:                   9
##########                         Heavy_Atoms:                  23
##########                    Molecular_Weight:              340.85
##########                DOCK_Rotatable_Bonds:                   9
##########                       Formal_Charge:          -0.0500002
##########                     HBond_Acceptors:                   6
##########                        HBond_Donors:                   3
##########                         Heavy_Atoms:                  23
##########                          Grid_Score:          -32.553780
##########                     Grid_vdw_energy:          -33.096745
##########                      Grid_es_energy:            0.542966
##########           Internal_energy_repulsive:           16.533167

@<TRIPOS>MOLECULE
ZINC000279593480
 48 49 1 0 0
SMALL
USER_CHARGES


@<TRIPOS>ATOM
      1 C1        -10.8252    3.8340   54.2986 C.3     1  ZINC000279593480   -0.1400
      2 C2        -10.8875    2.5813   53.4224 C.3     1  ZINC000279593480   -0.1400
      3 C3         -9.9239    1.5269   53.9707 C.3     1  ZINC000279593480    0.1700
      4 H4         -8.9556    1.9869   54.1676 H       1  ZINC000279593480    0.0900
      5 C5         -9.7565    0.4057   52.9433 C.3     1  ZINC000279593480   -0.0900
      6 C6         -8.4658    0.6026   52.1907 C.ar    1  ZINC000279593480   -0.0800
      7 C7         -7.9313    1.8703   52.0556 C.ar    1  ZINC000279593480   -0.1000
      8 C8         -6.7475    2.0515   51.3655 C.ar    1  ZINC000279593480   -0.1100
      9 C9         -6.0976    0.9639   50.8098 C.ar    1  ZINC000279593480   -0.0400
     10 Cl10       -4.6104    1.1906   49.9433 Cl      1  ZINC000279593480   -0.0700
     11 C11        -6.6331   -0.3046   50.9453 C.ar    1  ZINC000279593480   -0.1100
     12 C12        -7.8139   -0.4853   51.6405 C.ar    1  ZINC000279593480   -0.1000
     13 N13       -10.4632    0.9726   55.2150 N.am    1  ZINC000279593480   -0.7400
     14 C14        -9.6282    0.4753   56.1488 C.2     1  ZINC000279593480    0.7100
     15 O15        -8.4272    0.4882   55.9591 O.2     1  ZINC000279593480   -0.5800
     16 N16       -10.1244   -0.0361   57.2928 N.am    1  ZINC000279593480   -0.7500
     17 C17        -9.2166   -0.5750   58.3085 C.3     1  ZINC000279593480    0.1200
     18 C18        -9.9891   -1.5162   59.2351 C.3     1  ZINC000279593480    0.0900
     19 O19       -11.3166   -1.0310   59.4459 O.3     1  ZINC000279593480   -0.5400
     20 C20       -10.0184   -2.9466   58.6516 C.3     1  ZINC000279593480   -0.1900
     21 C21        -9.2943   -3.8010   59.7155 C.3     1  ZINC000279593480    0.0500
     22 O22        -9.4417   -3.0601   60.9466 O.3     1  ZINC000279593480   -0.3600
     23 C23        -9.2506   -1.6755   60.5826 C.3     1  ZINC000279593480    0.0900
     24 H24        -8.1894   -1.4579   60.4618 H       1  ZINC000279593480    0.0800
     25 C25        -9.8646   -0.7570   61.6410 C.3     1  ZINC000279593480   -0.1400
     26 H26        -9.8102    4.2313   54.2929 H       1  ZINC000279593480    0.0600
     27 H27       -11.5117    4.5851   53.9080 H       1  ZINC000279593480    0.0400
     28 H28       -11.1093    3.5780   55.3193 H       1  ZINC000279593480    0.0600
     29 H29       -11.9025    2.1839   53.4282 H       1  ZINC000279593480    0.0600
     30 H30       -10.6034    2.8373   52.4017 H       1  ZINC000279593480    0.0700
     31 H31        -9.7353   -0.5563   53.4554 H       1  ZINC000279593480    0.0800
     32 H32       -10.5919    0.4264   52.2435 H       1  ZINC000279593480    0.0900
     33 H33        -8.4389    2.7193   52.4892 H       1  ZINC000279593480    0.1300
     34 H34        -6.3301    3.0420   51.2598 H       1  ZINC000279593480    0.1300
     35 H35        -6.1264   -1.1539   50.5115 H       1  ZINC000279593480    0.1300
     36 H36        -8.2319   -1.4755   51.7467 H       1  ZINC000279593480    0.1300
     37 H37       -11.4212    0.9633   55.3667 H       1  ZINC000279593480    0.3900
     38 H38       -11.0825   -0.0475   57.4435 H       1  ZINC000279593480    0.3900
     39 H39        -8.4114   -1.1248   57.8213 H       1  ZINC000279593480    0.0800
     40 H40        -8.7961    0.2444   58.8916 H       1  ZINC000279593480    0.0800
     41 H41       -11.4498   -0.1153   59.1655 H       1  ZINC000279593480    0.3700
     42 H42       -11.0463   -3.2860   58.5241 H       1  ZINC000279593480    0.0900
     43 H43        -9.4827   -2.9832   57.7030 H       1  ZINC000279593480    0.0900
     44 H44        -9.7669   -4.7793   59.8026 H       1  ZINC000279593480    0.1000
     45 H45        -8.2398   -3.9093   59.4618 H       1  ZINC000279593480    0.0600
     46 H46        -9.3687   -0.9223   62.5974 H       1  ZINC000279593480    0.0600
     47 H47        -9.7350    0.2824   61.3393 H       1  ZINC000279593480    0.0700
     48 H48       -10.9276   -0.9767   61.7402 H       1  ZINC000279593480    0.0700
@<TRIPOS>BOND
     1     1     2    1
     2     1    26    1
     3     1    27    1
     4     1    28    1
     5     2     3    1
     6     2    29    1
     7     2    30    1
     8     3     4    1
     9     3     5    1
    10     3    13    1
    11     5     6    1
    12     5    31    1
    13     5    32    1
    14     6    12   ar
    15     6     7   ar
    16     7     8   ar
    17     7    33    1
    18     8     9   ar
    19     8    34    1
    20     9    10    1
    21     9    11   ar
    22    11    12   ar
    23    11    35    1
    24    12    36    1
    25    13    14   am
    26    13    37    1
    27    14    15    2
    28    14    16   am
    29    16    17    1
    30    16    38    1
    31    17    18    1
    32    17    39    1
    33    17    40    1
    34    18    23    1
    35    18    19    1
    36    18    20    1
    37    19    41    1
    38    20    21    1
    39    20    42    1
    40    20    43    1
    41    21    22    1
    42    21    44    1
    43    21    45    1
    44    22    23    1
    45    23    24    1
    46    23    25    1
    47    25    46    1
    48    25    47    1
    49    25    48    1
@<TRIPOS>SUBSTRUCTURE
     1 ZINC000279593480        1 TEMP              0 ****  ****    0 ROOT


##########                                Name:    ZINC001085711660
##########                DOCK_Rotatable_Bonds:                   8
##########                         Heavy_Atoms:                  25
##########                    Molecular_Weight:             347.414
##########                DOCK_Rotatable_Bonds:                   8
##########                       Formal_Charge:         -0.00999993
##########                     HBond_Acceptors:                   7
##########                        HBond_Donors:                   0
##########                         Heavy_Atoms:                  25
##########                          Grid_Score:          -32.551712
##########                     Grid_vdw_energy:          -33.071556
##########                      Grid_es_energy:            0.519844
##########           Internal_energy_repulsive:           15.919135

@<TRIPOS>MOLECULE
ZINC001085711660
 50 52 1 0 0
SMALL
USER_CHARGES


@<TRIPOS>ATOM
      1 C1         -3.9237    1.4953   49.4340 C.3     1  ZINC001085711660    0.0300
      2 O2         -4.8401    0.6255   50.1016 O.3     1  ZINC001085711660   -0.3800
      3 C3         -6.1145    1.2158   50.3653 C.3     1  ZINC001085711660    0.1400
      4 C4         -6.9847    0.2265   51.0968 C.2     1  ZINC001085711660    0.0100
      5 C5         -6.9281   -1.1174   50.9677 C.2     1  ZINC001085711660   -0.1900
      6 C6         -7.9036   -1.6559   51.8214 C.2     1  ZINC001085711660   -0.1200
      7 C7         -8.5136   -0.6000   52.4358 C.2     1  ZINC001085711660   -0.0700
      8 C8         -9.6004   -0.6844   53.4167 C.2     1  ZINC001085711660    0.6000
      9 O9         -9.5235   -0.0701   54.4645 O.2     1  ZINC001085711660   -0.5200
     10 N10       -10.6845   -1.4422   53.1579 N.am    1  ZINC001085711660   -0.6000
     11 C11       -10.7771   -2.1818   51.8967 C.3     1  ZINC001085711660    0.0700
     12 C12       -11.7703   -1.5265   54.1379 C.3     1  ZINC001085711660    0.1300
     13 C13       -11.6386   -2.8262   54.9343 C.3     1  ZINC001085711660    0.0000
     14 H14       -10.6736   -3.3125   54.7908 H       1  ZINC001085711660    0.1000
     15 C15       -12.8332   -3.7744   54.7593 C.3     1  ZINC001085711660   -0.1400
     16 C16       -12.6289   -4.0305   56.2591 C.3     1  ZINC001085711660    0.0100
     17 N17       -12.0220   -2.6883   56.3518 N.3     1  ZINC001085711660   -0.4500
     18 C18       -10.8390   -2.7044   57.2226 C.3     1  ZINC001085711660    0.1500
     19 H19       -10.0392   -3.2649   56.7387 H       1  ZINC001085711660    0.1000
     20 C20       -11.1947   -3.3696   58.5538 C.3     1  ZINC001085711660   -0.1900
     21 C21       -10.3810   -1.2909   57.4739 C.2     1  ZINC001085711660    0.2000
     22 N22        -9.1422   -0.8896   57.5084 N.2     1  ZINC001085711660   -0.4700
     23 C23        -9.1238    0.4320   57.7563 C.2     1  ZINC001085711660   -0.0400
     24 C24       -10.3974    0.8422   57.8755 C.2     1  ZINC001085711660   -0.0500
     25 C25       -10.8626    2.2482   58.1547 C.3     1  ZINC001085711660   -0.0700
     26 O26       -11.1809   -0.2388   57.6931 O.3     1  ZINC001085711660   -0.2000
     27 O27        -7.9377    0.5341   51.9862 O.3     1  ZINC001085711660   -0.1500
     28 H28        -4.3429    1.7974   48.4744 H       1  ZINC001085711660    0.0500
     29 H29        -3.7482    2.3786   50.0481 H       1  ZINC001085711660    0.0500
     30 H30        -2.9808    0.9733   49.2705 H       1  ZINC001085711660    0.0900
     31 H31        -5.9824    2.1068   50.9790 H       1  ZINC001085711660    0.0900
     32 H32        -6.5895    1.4906   49.4235 H       1  ZINC001085711660    0.0700
     33 H33        -6.2582   -1.6728   50.3279 H       1  ZINC001085711660    0.1600
     34 H34        -8.1282   -2.7025   51.9645 H       1  ZINC001085711660    0.1600
     35 H35       -10.2449   -3.1283   51.9906 H       1  ZINC001085711660    0.0600
     36 H36       -11.8244   -2.3753   51.6651 H       1  ZINC001085711660    0.0900
     37 H37       -10.3309   -1.5919   51.0961 H       1  ZINC001085711660    0.0800
     38 H38       -11.7128   -0.6764   54.8178 H       1  ZINC001085711660    0.0900
     39 H39       -12.7292   -1.5134   53.6199 H       1  ZINC001085711660    0.0900
     40 H40       -13.7695   -3.2723   54.5157 H       1  ZINC001085711660    0.1000
     41 H41       -12.6284   -4.6383   54.1270 H       1  ZINC001085711660    0.0800
     42 H42       -13.5620   -4.1250   56.8145 H       1  ZINC001085711660    0.0900
     43 H43       -11.9282   -4.8383   56.4702 H       1  ZINC001085711660    0.0800
     44 H44       -12.0652   -2.8757   58.9855 H       1  ZINC001085711660    0.0800
     45 H45       -11.4207   -4.4224   58.3850 H       1  ZINC001085711660    0.0800
     46 H46       -10.3515   -3.2843   59.2392 H       1  ZINC001085711660    0.0700
     47 H47        -8.2437    1.0518   57.8440 H       1  ZINC001085711660    0.1800
     48 H48       -11.0079    2.7766   57.2126 H       1  ZINC001085711660    0.0800
     49 H49       -11.8042    2.2172   58.7029 H       1  ZINC001085711660    0.0800
     50 H50       -10.1122    2.7675   58.7507 H       1  ZINC001085711660    0.0900
@<TRIPOS>BOND
     1     1     2    1
     2     1    28    1
     3     1    29    1
     4     1    30    1
     5     2     3    1
     6     3     4    1
     7     3    31    1
     8     3    32    1
     9     4    27    1
    10     4     5    2
    11     5     6    1
    12     5    33    1
    13     6     7    2
    14     6    34    1
    15     7     8    1
    16     7    27    1
    17     8     9    2
    18     8    10   am
    19    10    11    1
    20    10    12    1
    21    11    35    1
    22    11    36    1
    23    11    37    1
    24    12    13    1
    25    12    38    1
    26    12    39    1
    27    13    14    1
    28    13    17    1
    29    13    15    1
    30    15    16    1
    31    15    40    1
    32    15    41    1
    33    16    17    1
    34    16    42    1
    35    16    43    1
    36    17    18    1
    37    18    19    1
    38    18    20    1
    39    18    21    1
    40    20    44    1
    41    20    45    1
    42    20    46    1
    43    21    26    1
    44    21    22    2
    45    22    23    1
    46    23    24    2
    47    23    47    1
    48    24    25    1
    49    24    26    1
    50    25    48    1
    51    25    49    1
    52    25    50    1
@<TRIPOS>SUBSTRUCTURE
     1 ZINC001085711660        1 TEMP              0 ****  ****    0 ROOT


##########                                Name:    ZINC000797321835
##########                DOCK_Rotatable_Bonds:                   4
##########                         Heavy_Atoms:                  22
##########                    Molecular_Weight:             381.253
##########                DOCK_Rotatable_Bonds:                   4
##########                       Formal_Charge:           0.0200001
##########                     HBond_Acceptors:                   7
##########                        HBond_Donors:                   1
##########                         Heavy_Atoms:                  22
##########                          Grid_Score:          -32.551697
##########                     Grid_vdw_energy:          -30.556543
##########                      Grid_es_energy:           -1.995155
##########           Internal_energy_repulsive:           12.756228

@<TRIPOS>MOLECULE
ZINC000797321835
 35 37 1 0 0
SMALL
USER_CHARGES


@<TRIPOS>ATOM
      1 C1        -10.4694    2.0201   65.7090 C.3     1  ZINC000797321835    0.1000
      2 N2         -9.1401    1.5992   66.1584 N.am    1  ZINC000797321835   -0.6000
      3 C3         -8.7426    1.5857   67.4425 C.2     1  ZINC000797321835    0.5200
      4 O4         -9.4268    1.9241   68.3850 O.2     1  ZINC000797321835   -0.5200
      5 C5         -7.3180    1.0865   67.5409 C.3     1  ZINC000797321835   -0.1500
      6 C6         -7.0582    0.4096   66.1751 C.3     1  ZINC000797321835   -0.1200
      7 C7         -8.0733    1.1323   65.2652 C.3     1  ZINC000797321835    0.1200
      8 H8         -7.6010    1.9834   64.7746 H       1  ZINC000797321835    0.1100
      9 C9         -8.6236    0.1780   64.2368 C.2     1  ZINC000797321835    0.4900
     10 O10        -8.7177   -1.0033   64.4945 O.2     1  ZINC000797321835   -0.4400
     11 N11        -9.0112    0.6375   63.0305 N.am    1  ZINC000797321835   -0.6500
     12 C12        -9.5205   -0.2456   62.0787 C.ar    1  ZINC000797321835    0.3000
     13 C13       -10.5407    0.1659   61.2202 C.ar    1  ZINC000797321835   -0.1400
     14 C14       -11.0150   -0.7428   60.2916 C.ar    1  ZINC000797321835   -0.0800
     15 C15       -10.4409   -2.0207   60.2711 C.ar    1  ZINC000797321835    0.1100
     16 C16       -10.9102   -3.0287   59.2992 C.2     1  ZINC000797321835   -0.1400
     17 C17       -10.2861   -4.1912   59.0206 C.2     1  ZINC000797321835   -0.0900
     18 C18       -10.9166   -4.9719   58.0748 C.2     1  ZINC000797321835   -0.0900
     19 C19       -12.0481   -4.4581   57.5794 C.2     1  ZINC000797321835   -0.2000
     20 Br20      -13.1376   -5.2843   56.2731 Br      1  ZINC000797321835    0.0200
     21 S21       -12.3734   -2.9021   58.3315 S.3     1  ZINC000797321835    0.1900
     22 N22        -9.4723   -2.3218   61.1293 N.ar    1  ZINC000797321835   -0.1900
     23 N23        -9.0323   -1.4731   61.9857 N.ar    1  ZINC000797321835   -0.2200
     24 H24       -11.1382    1.1595   65.6970 H       1  ZINC000797321835    0.0700
     25 H25       -10.8612    2.7752   66.3905 H       1  ZINC000797321835    0.0800
     26 H26       -10.3979    2.4388   64.7051 H       1  ZINC000797321835    0.0700
     27 H27        -6.6313    1.9197   67.6905 H       1  ZINC000797321835    0.1100
     28 H28        -7.2225    0.3623   68.3499 H       1  ZINC000797321835    0.1100
     29 H29        -6.0358    0.5858   65.8406 H       1  ZINC000797321835    0.1100
     30 H30        -7.2731   -0.6580   66.2217 H       1  ZINC000797321835    0.0900
     31 H31        -8.9361    1.5824   62.8243 H       1  ZINC000797321835    0.4200
     32 H32       -10.9482    1.1643   61.2792 H       1  ZINC000797321835    0.1600
     33 H33       -11.8037   -0.4756   59.6039 H       1  ZINC000797321835    0.1500
     34 H34        -9.3649   -4.4873   59.5002 H       1  ZINC000797321835    0.1600
     35 H35       -10.5258   -5.9272   57.7572 H       1  ZINC000797321835    0.1600
@<TRIPOS>BOND
     1     1     2    1
     2     1    24    1
     3     1    25    1
     4     1    26    1
     5     2     7    1
     6     2     3   am
     7     3     4    2
     8     3     5    1
     9     5     6    1
    10     5    27    1
    11     5    28    1
    12     6     7    1
    13     6    29    1
    14     6    30    1
    15     7     8    1
    16     7     9    1
    17     9    10    2
    18     9    11   am
    19    11    12    1
    20    11    31    1
    21    12    23   ar
    22    12    13   ar
    23    13    14   ar
    24    13    32    1
    25    14    15   ar
    26    14    33    1
    27    15    16    1
    28    15    22   ar
    29    16    21    1
    30    16    17    2
    31    17    18    1
    32    17    34    1
    33    18    19    2
    34    18    35    1
    35    19    20    1
    36    19    21    1
    37    22    23   ar
@<TRIPOS>SUBSTRUCTURE
     1 ZINC000797321835        1 TEMP              0 ****  ****    0 ROOT


##########                                Name:    ZINC000540473851
##########                DOCK_Rotatable_Bonds:                   5
##########                         Heavy_Atoms:                  29
##########                    Molecular_Weight:             411.503
##########                DOCK_Rotatable_Bonds:                   5
##########                       Formal_Charge:           0.0200001
##########                     HBond_Acceptors:                   8
##########                        HBond_Donors:                   0
##########                         Heavy_Atoms:                  29
##########                          Grid_Score:          -32.536366
##########                     Grid_vdw_energy:          -31.881769
##########                      Grid_es_energy:           -0.654596
##########           Internal_energy_repulsive:           24.774551

@<TRIPOS>MOLECULE
ZINC000540473851
 51 54 1 0 0
SMALL
USER_CHARGES


@<TRIPOS>ATOM
      1 C1        -11.1862    0.8127   54.6615 C.3     1  ZINC000540473851   -0.0800
      2 C2         -9.8692    1.5061   54.4255 C.2     1  ZINC000540473851    0.1500
      3 C3         -9.3949    2.5022   55.2370 C.2     1  ZINC000540473851   -0.3100
      4 C4        -10.0637    3.0410   56.4275 C.2     1  ZINC000540473851    0.6000
      5 O5        -10.8176    3.9904   56.3244 O.2     1  ZINC000540473851   -0.5100
      6 N6         -9.8426    2.4840   57.6347 N.am    1  ZINC000540473851   -0.6100
      7 C7        -10.5069    3.0042   58.8393 C.3     1  ZINC000540473851    0.1000
      8 C8        -11.1712    1.8341   59.5726 C.3     1  ZINC000540473851    0.0400
      9 N9        -10.1733    0.7843   59.8181 N.3     1  ZINC000540473851   -0.5300
     10 C10       -10.7255   -0.2787   60.6683 C.3     1  ZINC000540473851    0.1200
     11 H11       -11.8143   -0.2266   60.6539 H       1  ZINC000540473851    0.0500
     12 C12       -10.2251   -0.0963   62.1026 C.3     1  ZINC000540473851   -0.1400
     13 C13       -10.2799   -1.6208   60.1477 C.ar    1  ZINC000540473851   -0.0500
     14 C14        -9.0410   -2.1219   60.5004 C.ar    1  ZINC000540473851   -0.1000
     15 C15        -8.6307   -3.3532   60.0236 C.ar    1  ZINC000540473851   -0.0900
     16 C16        -9.4590   -4.0842   59.1936 C.ar    1  ZINC000540473851   -0.1500
     17 C17       -10.7007   -3.5833   58.8398 C.ar    1  ZINC000540473851    0.1000
     18 F18       -11.5114   -4.2972   58.0285 F       1  ZINC000540473851   -0.1400
     19 C19       -11.1126   -2.3528   59.3222 C.ar    1  ZINC000540473851   -0.1500
     20 C20        -9.6567    0.2350   58.5573 C.3     1  ZINC000540473851    0.0400
     21 C21        -8.9351    1.3358   57.7814 C.3     1  ZINC000540473851    0.1200
     22 S22        -7.8376    3.0206   54.5959 S.3     1  ZINC000540473851    0.2800
     23 C23        -7.9658    1.8797   53.3296 C.2     1  ZINC000540473851    0.0800
     24 C24        -6.9537    1.6798   52.2691 C.ar    1  ZINC000540473851    0.3800
     25 N25        -5.8382    2.3978   52.2945 N.ar    1  ZINC000540473851   -0.5100
     26 C26        -4.9145    2.2437   51.3625 C.ar    1  ZINC000540473851    0.1600
     27 C27        -5.1222    1.3180   50.3499 C.ar    1  ZINC000540473851   -0.2100
     28 C28        -6.2996    0.5838   50.3534 C.ar    1  ZINC000540473851    0.1500
     29 N29        -7.1805    0.7827   51.3180 N.ar    1  ZINC000540473851   -0.4700
     30 N30        -9.0764    1.2067   53.4324 N.2     1  ZINC000540473851   -0.4300
     31 H31       -11.0310   -0.0526   55.3059 H       1  ZINC000540473851    0.0900
     32 H32       -11.8796    1.5034   55.1415 H       1  ZINC000540473851    0.0800
     33 H33       -11.6009    0.4859   53.7079 H       1  ZINC000540473851    0.0800
     34 H34        -9.7694    3.4732   59.4906 H       1  ZINC000540473851    0.0900
     35 H35       -11.2642    3.7343   58.5535 H       1  ZINC000540473851    0.0900
     36 H36       -11.5739    2.1824   60.5238 H       1  ZINC000540473851    0.1000
     37 H37       -11.9786    1.4324   58.9605 H       1  ZINC000540473851    0.0400
     38 H38        -9.1365   -0.1482   62.1170 H       1  ZINC000540473851    0.0700
     39 H39       -10.5475    0.8746   62.4791 H       1  ZINC000540473851    0.0600
     40 H40       -10.6350   -0.8850   62.7335 H       1  ZINC000540473851    0.0600
     41 H41        -8.3927   -1.5511   61.1488 H       1  ZINC000540473851    0.1400
     42 H42        -7.6622   -3.7436   60.2995 H       1  ZINC000540473851    0.1300
     43 H43        -9.1380   -5.0456   58.8207 H       1  ZINC000540473851    0.1300
     44 H44       -12.0808   -1.9614   59.0473 H       1  ZINC000540473851    0.1300
     45 H45        -8.9611   -0.5762   58.7720 H       1  ZINC000540473851    0.1000
     46 H46       -10.4853   -0.1444   57.9593 H       1  ZINC000540473851    0.0400
     47 H47        -8.6507    0.9638   56.7972 H       1  ZINC000540473851    0.1000
     48 H48        -8.0459    1.6473   58.3293 H       1  ZINC000540473851    0.0800
     49 H49        -4.0087    2.8313   51.3882 H       1  ZINC000540473851    0.1800
     50 H50        -4.3836    1.1723   49.5756 H       1  ZINC000540473851    0.1600
     51 H51        -6.4917   -0.1445   49.5795 H       1  ZINC000540473851    0.1800
@<TRIPOS>BOND
     1     1     2    1
     2     1    31    1
     3     1    32    1
     4     1    33    1
     5     2    30    1
     6     2     3    2
     7     3     4    1
     8     3    22    1
     9     4     5    2
    10     4     6   am
    11     6    21    1
    12     6     7    1
    13     7     8    1
    14     7    34    1
    15     7    35    1
    16     8     9    1
    17     8    36    1
    18     8    37    1
    19     9    10    1
    20     9    20    1
    21    10    11    1
    22    10    12    1
    23    10    13    1
    24    12    38    1
    25    12    39    1
    26    12    40    1
    27    13    19   ar
    28    13    14   ar
    29    14    15   ar
    30    14    41    1
    31    15    16   ar
    32    15    42    1
    33    16    17   ar
    34    16    43    1
    35    17    18    1
    36    17    19   ar
    37    19    44    1
    38    20    21    1
    39    20    45    1
    40    20    46    1
    41    21    47    1
    42    21    48    1
    43    22    23    1
    44    23    24    1
    45    23    30    2
    46    24    29   ar
    47    24    25   ar
    48    25    26   ar
    49    26    27   ar
    50    26    49    1
    51    27    28   ar
    52    27    50    1
    53    28    29   ar
    54    28    51    1
@<TRIPOS>SUBSTRUCTURE
     1 ZINC000540473851        1 TEMP              0 ****  ****    0 ROOT


##########                                Name:    ZINC000451500596
##########                DOCK_Rotatable_Bonds:                   7
##########                         Heavy_Atoms:                  25
##########                    Molecular_Weight:             365.497
##########                DOCK_Rotatable_Bonds:                   7
##########                       Formal_Charge:           0.0400004
##########                     HBond_Acceptors:                   7
##########                        HBond_Donors:                   2
##########                         Heavy_Atoms:                  25
##########                          Grid_Score:          -32.535248
##########                     Grid_vdw_energy:          -32.085884
##########                      Grid_es_energy:           -0.449364
##########           Internal_energy_repulsive:           13.250614

@<TRIPOS>MOLECULE
ZINC000451500596
 52 54 1 0 0
SMALL
USER_CHARGES


@<TRIPOS>ATOM
      1 C1         -7.4685    2.2516   67.2377 C.3     1  ZINC000451500596   -0.6700
      2 S2         -7.9566    0.5125   67.0699 S.o2    1  ZINC000451500596    2.6100
      3 O3         -6.8410   -0.2847   66.6971 O.2     1  ZINC000451500596   -0.9500
      4 O4         -8.8067    0.1277   68.1416 O.2     1  ZINC000451500596   -0.9600
      5 N5         -8.9407    0.4862   65.7384 N.am    1  ZINC000451500596   -1.1200
      6 C6         -8.4239    0.9168   64.4370 C.3     1  ZINC000451500596    0.1200
      7 C7         -9.5644    1.5074   63.6054 C.3     1  ZINC000451500596   -0.1000
      8 H8         -9.2192    1.7141   62.5924 H       1  ZINC000451500596    0.0900
      9 C9        -10.0810    2.8040   64.2625 C.3     1  ZINC000451500596   -0.1200
     10 C10       -11.6111    2.7667   64.0249 C.3     1  ZINC000451500596   -0.1300
     11 C11       -11.9486    1.2658   64.2061 C.3     1  ZINC000451500596   -0.1300
     12 C12       -10.7513    0.5289   63.5685 C.3     1  ZINC000451500596    0.1400
     13 H13       -10.5149   -0.3665   64.1433 H       1  ZINC000451500596    0.1000
     14 N14       -11.0641    0.1678   62.1835 N.am    1  ZINC000451500596   -0.7200
     15 C15       -10.4022   -0.8419   61.5845 C.2     1  ZINC000451500596    0.5300
     16 O16        -9.5465   -1.4506   62.1915 O.2     1  ZINC000451500596   -0.5300
     17 C17       -10.7251   -1.2146   60.1605 C.3     1  ZINC000451500596   -0.1300
     18 H18       -11.3793   -0.4697   59.7075 H       1  ZINC000451500596    0.1000
     19 C19        -9.4259   -1.3818   59.3292 C.3     1  ZINC000451500596   -0.1200
     20 C20        -9.8863   -2.3639   58.2233 C.3     1  ZINC000451500596    0.0500
     21 N21       -10.8124   -3.2930   58.9051 N.3     1  ZINC000451500596   -0.4900
     22 C22       -11.8336   -3.7029   58.0449 C.ar    1  ZINC000451500596    0.0800
     23 C23       -11.8513   -5.0025   57.5546 C.ar    1  ZINC000451500596   -0.0900
     24 C24       -12.8627   -5.4046   56.7047 C.ar    1  ZINC000451500596   -0.1100
     25 C25       -13.8571   -4.5149   56.3411 C.ar    1  ZINC000451500596   -0.1200
     26 C26       -13.8425   -3.2204   56.8272 C.ar    1  ZINC000451500596   -0.1100
     27 C27       -12.8371   -2.8134   57.6822 C.ar    1  ZINC000451500596   -0.1500
     28 C28       -11.3671   -2.6164   60.0955 C.3     1  ZINC000451500596    0.0600
     29 H29        -6.9433    2.5700   66.3373 H       1  ZINC000451500596    0.1300
     30 H30        -8.3576    2.8667   67.3766 H       1  ZINC000451500596    0.1300
     31 H31        -6.8113    2.3630   68.1002 H       1  ZINC000451500596    0.1300
     32 H32        -9.8594    0.1857   65.8201 H       1  ZINC000451500596    0.4200
     33 H33        -7.6526    1.6727   64.5843 H       1  ZINC000451500596    0.0700
     34 H34        -7.9983    0.0606   63.9137 H       1  ZINC000451500596    0.0900
     35 H35        -9.8606    2.8047   65.3300 H       1  ZINC000451500596    0.0800
     36 H36        -9.6414    3.6773   63.7807 H       1  ZINC000451500596    0.0700
     37 H37       -12.1321    3.3720   64.7667 H       1  ZINC000451500596    0.0700
     38 H38       -11.8534    3.0980   63.0151 H       1  ZINC000451500596    0.0700
     39 H39       -12.0298    1.0182   65.2645 H       1  ZINC000451500596    0.0800
     40 H40       -12.8718    1.0167   63.6831 H       1  ZINC000451500596    0.0700
     41 H41       -11.7476    0.6553   61.6977 H       1  ZINC000451500596    0.4000
     42 H42        -9.1116   -0.4302   58.9002 H       1  ZINC000451500596    0.0800
     43 H43        -8.6299   -1.8183   59.9324 H       1  ZINC000451500596    0.0800
     44 H44       -10.4045   -1.8259   57.4296 H       1  ZINC000451500596    0.0600
     45 H45        -9.0323   -2.9077   57.8193 H       1  ZINC000451500596    0.0900
     46 H46       -11.0746   -5.6977   57.8377 H       1  ZINC000451500596    0.1300
     47 H47       -12.8770   -6.4149   56.3232 H       1  ZINC000451500596    0.1300
     48 H48       -14.6464   -4.8317   55.6757 H       1  ZINC000451500596    0.1200
     49 H49       -14.6205   -2.5281   56.5413 H       1  ZINC000451500596    0.1200
     50 H50       -12.8265   -1.8024   58.0617 H       1  ZINC000451500596    0.1200
     51 H51       -11.1142   -3.1796   60.9937 H       1  ZINC000451500596    0.1000
     52 H52       -12.4496   -2.5298   60.0019 H       1  ZINC000451500596    0.0700
@<TRIPOS>BOND
     1     1     2    1
     2     1    29    1
     3     1    30    1
     4     1    31    1
     5     2     3    2
     6     2     4    2
     7     2     5   am
     8     5     6    1
     9     5    32    1
    10     6     7    1
    11     6    33    1
    12     6    34    1
    13     7     8    1
    14     7    12    1
    15     7     9    1
    16     9    10    1
    17     9    35    1
    18     9    36    1
    19    10    11    1
    20    10    37    1
    21    10    38    1
    22    11    12    1
    23    11    39    1
    24    11    40    1
    25    12    13    1
    26    12    14    1
    27    14    15   am
    28    14    41    1
    29    15    16    2
    30    15    17    1
    31    17    18    1
    32    17    28    1
    33    17    19    1
    34    19    20    1
    35    19    42    1
    36    19    43    1
    37    20    21    1
    38    20    44    1
    39    20    45    1
    40    21    22    1
    41    21    28    1
    42    22    27   ar
    43    22    23   ar
    44    23    24   ar
    45    23    46    1
    46    24    25   ar
    47    24    47    1
    48    25    26   ar
    49    25    48    1
    50    26    27   ar
    51    26    49    1
    52    27    50    1
    53    28    51    1
    54    28    52    1
@<TRIPOS>SUBSTRUCTURE
     1 ZINC000451500596        1 TEMP              0 ****  ****    0 ROOT


##########                                Name:    ZINC000442864105
##########                DOCK_Rotatable_Bonds:                   7
##########                         Heavy_Atoms:                  30
##########                    Molecular_Weight:              414.39
##########                DOCK_Rotatable_Bonds:                   7
##########                       Formal_Charge:           0.0200001
##########                     HBond_Acceptors:                  10
##########                        HBond_Donors:                   2
##########                         Heavy_Atoms:                  30
##########                          Grid_Score:          -32.496265
##########                     Grid_vdw_energy:          -32.452461
##########                      Grid_es_energy:           -0.043805
##########           Internal_energy_repulsive:            8.015378

@<TRIPOS>MOLECULE
ZINC000442864105
 47 50 1 0 0
SMALL
USER_CHARGES


@<TRIPOS>ATOM
      1 C1         -7.5385    0.9293   65.5273 C.3     1  ZINC000442864105    0.0800
      2 N2         -8.6089    1.5199   64.7200 N.pl3   1  ZINC000442864105   -0.4900
      3 C3         -9.2114    2.7244   64.9715 C.2     1  ZINC000442864105    0.0300
      4 C4        -10.1492    2.9692   64.0435 C.2     1  ZINC000442864105   -0.1900
      5 C5        -10.1485    1.8294   63.1219 C.ar    1  ZINC000442864105   -0.1600
      6 C6        -10.8832    1.5077   61.9790 C.ar    1  ZINC000442864105   -0.0200
      7 C7        -10.6403    0.3355   61.3219 C.ar    1  ZINC000442864105   -0.2100
      8 C8         -9.6625   -0.5441   61.7841 C.ar    1  ZINC000442864105    0.2400
      9 N9         -9.4260   -1.7401   61.1000 N.pl3   1  ZINC000442864105   -0.7400
     10 C10       -10.5525   -2.5522   60.6335 C.3     1  ZINC000442864105    0.1100
     11 C11       -10.6007   -2.5265   59.1275 C.2     1  ZINC000442864105    0.5100
     12 O12        -9.7494   -3.1026   58.4835 O.2     1  ZINC000442864105   -0.5100
     13 N13       -11.5896   -1.8633   58.4960 N.am    1  ZINC000442864105   -0.6600
     14 C14       -11.6343   -1.8394   57.0972 C.ar    1  ZINC000442864105    0.1600
     15 C15       -10.8034   -0.9836   56.3892 C.ar    1  ZINC000442864105   -0.0700
     16 C16       -10.8493   -0.9617   55.0081 C.ar    1  ZINC000442864105   -0.1600
     17 C17        -9.9456   -0.0313   54.2410 C.3     1  ZINC000442864105    0.5100
     18 F18        -8.8750    0.3549   55.0544 F       1  ZINC000442864105   -0.1700
     19 F19        -9.4563   -0.6870   53.1061 F       1  ZINC000442864105   -0.1700
     20 F20       -10.6667    1.1021   53.8501 F       1  ZINC000442864105   -0.1700
     21 C21       -11.7218   -1.7915   54.3280 C.ar    1  ZINC000442864105   -0.0600
     22 C22       -12.5537   -2.6470   55.0254 C.ar    1  ZINC000442864105   -0.1100
     23 C23       -12.5104   -2.6800   56.4110 C.ar    1  ZINC000442864105    0.1500
     24 N24       -13.3537   -3.5473   57.1207 N.pl3   1  ZINC000442864105   -0.3300
     25 C25       -13.4944   -4.8731   56.9291 C.2     1  ZINC000442864105    0.2800
     26 N26       -14.3739   -5.3161   57.7911 N.2     1  ZINC000442864105   -0.5300
     27 C27       -14.8143   -4.3098   58.5455 C.2     1  ZINC000442864105    0.2300
     28 N28       -14.2150   -3.2076   58.1768 N.2     1  ZINC000442864105   -0.3400
     29 C29        -8.9236   -0.2421   62.9150 C.ar    1  ZINC000442864105   -0.2100
     30 C30        -9.1556    0.9501   63.5918 C.ar    1  ZINC000442864105    0.1500
     31 H31        -6.5720    1.2598   65.1469 H       1  ZINC000442864105    0.0700
     32 H32        -7.6484    1.2462   66.5643 H       1  ZINC000442864105    0.0800
     33 H33        -7.5987   -0.1576   65.4712 H       1  ZINC000442864105    0.0800
     34 H34        -8.9677    3.3798   65.7946 H       1  ZINC000442864105    0.1700
     35 H35       -10.7845    3.8407   63.9867 H       1  ZINC000442864105    0.1400
     36 H36       -11.6426    2.1843   61.6156 H       1  ZINC000442864105    0.1200
     37 H37       -11.2098    0.0879   60.4383 H       1  ZINC000442864105    0.1200
     38 H38        -8.5160   -2.0322   60.9341 H       1  ZINC000442864105    0.4100
     39 H39       -10.4261   -3.5794   60.9755 H       1  ZINC000442864105    0.1000
     40 H40       -11.4823   -2.1478   61.0336 H       1  ZINC000442864105    0.1000
     41 H41       -12.2704   -1.4026   59.0110 H       1  ZINC000442864105    0.4300
     42 H42       -10.1208   -0.3343   56.9172 H       1  ZINC000442864105    0.1700
     43 H43       -11.7535   -1.7708   53.2487 H       1  ZINC000442864105    0.1500
     44 H44       -13.2341   -3.2934   54.4910 H       1  ZINC000442864105    0.1500
     45 H45       -12.9733   -5.4666   56.1925 H       1  ZINC000442864105    0.2300
     46 H46       -15.5449   -4.3921   59.3366 H       1  ZINC000442864105    0.2300
     47 H47        -8.1675   -0.9277   63.2679 H       1  ZINC000442864105    0.1200
@<TRIPOS>BOND
     1     1     2    1
     2     1    31    1
     3     1    32    1
     4     1    33    1
     5     2    30    1
     6     2     3    1
     7     3     4    2
     8     3    34    1
     9     4     5    1
    10     4    35    1
    11     5    30   ar
    12     5     6   ar
    13     6     7   ar
    14     6    36    1
    15     7     8   ar
    16     7    37    1
    17     8     9    1
    18     8    29   ar
    19     9    10    1
    20     9    38    1
    21    10    11    1
    22    10    39    1
    23    10    40    1
    24    11    12    2
    25    11    13   am
    26    13    14    1
    27    13    41    1
    28    14    23   ar
    29    14    15   ar
    30    15    16   ar
    31    15    42    1
    32    16    17    1
    33    16    21   ar
    34    17    18    1
    35    17    19    1
    36    17    20    1
    37    21    22   ar
    38    21    43    1
    39    22    23   ar
    40    22    44    1
    41    23    24    1
    42    24    28    1
    43    24    25    1
    44    25    26    2
    45    25    45    1
    46    26    27    1
    47    27    28    2
    48    27    46    1
    49    29    30   ar
    50    29    47    1
@<TRIPOS>SUBSTRUCTURE
     1 ZINC000442864105        1 TEMP              0 ****  ****    0 ROOT


##########                                Name:    ZINC001707162141
##########                DOCK_Rotatable_Bonds:                   9
##########                         Heavy_Atoms:                  25
##########                    Molecular_Weight:               344.5
##########                DOCK_Rotatable_Bonds:                   9
##########                       Formal_Charge:          -0.0299999
##########                     HBond_Acceptors:                   5
##########                        HBond_Donors:                   1
##########                         Heavy_Atoms:                  25
##########                          Grid_Score:          -32.473030
##########                     Grid_vdw_energy:          -32.834400
##########                      Grid_es_energy:            0.361372
##########           Internal_energy_repulsive:           81.423508

@<TRIPOS>MOLECULE
ZINC001707162141
 57 59 1 0 0
SMALL
USER_CHARGES


@<TRIPOS>ATOM
      1 C1         -8.9116   -3.5523   59.8442 C.3     1  ZINC001707162141   -0.1800
      2 C2         -9.3434   -2.1225   59.5122 C.3     1  ZINC001707162141    0.1700
      3 H3         -8.5475   -1.6212   58.9614 H       1  ZINC001707162141    0.1000
      4 N4        -10.5608   -2.1569   58.6908 N.3     1  ZINC001707162141   -0.6400
      5 C5        -10.4047   -1.3345   57.4835 C.3     1  ZINC001707162141    0.0700
      6 C6        -11.6789   -1.4185   56.6409 C.3     1  ZINC001707162141    0.1500
      7 H7        -12.5045   -0.9532   57.1795 H       1  ZINC001707162141    0.0700
      8 C8        -12.0103   -2.8868   56.3561 C.3     1  ZINC001707162141   -0.1200
      9 C9        -13.2028   -2.9602   55.3997 C.3     1  ZINC001707162141   -0.0900
     10 H10       -14.0579   -2.4525   55.8460 H       1  ZINC001707162141    0.0700
     11 C11       -13.5585   -4.4255   55.1400 C.3     1  ZINC001707162141   -0.1500
     12 C12       -12.8404   -2.2814   54.0768 C.3     1  ZINC001707162141   -0.1300
     13 C13       -12.5184   -0.8063   54.3358 C.3     1  ZINC001707162141    0.1100
     14 N14       -11.4711   -0.7241   55.3629 N.am    1  ZINC001707162141   -0.6100
     15 C15       -10.3409   -0.0254   55.1369 C.2     1  ZINC001707162141    0.5100
     16 O16        -9.4838    0.0348   55.9929 O.2     1  ZINC001707162141   -0.4800
     17 C17       -10.1422    0.6810   53.8206 C.3     1  ZINC001707162141   -0.1400
     18 C18        -8.9872    1.6765   53.9454 C.3     1  ZINC001707162141   -0.0900
     19 C19        -8.5084    2.0797   52.5492 C.3     1  ZINC001707162141   -0.0900
     20 C20        -7.6459    0.9603   51.9629 C.3     1  ZINC001707162141   -0.1500
     21 C21        -6.1626    1.2575   51.7338 C.3     1  ZINC001707162141   -0.1800
     22 C22        -7.1143    1.1492   50.5407 C.3     1  ZINC001707162141   -0.1800
     23 C23        -9.6203   -1.3720   60.7895 C.ar    1  ZINC001707162141    0.3500
     24 N24       -10.7303   -0.6692   60.8926 N.ar    1  ZINC001707162141   -0.5000
     25 C25       -11.0097   -0.0019   62.0008 C.ar    1  ZINC001707162141    0.1500
     26 C26       -10.1114   -0.0405   63.0555 C.ar    1  ZINC001707162141   -0.2400
     27 C27        -8.9523   -0.7859   62.9073 C.ar    1  ZINC001707162141    0.1500
     28 N28        -8.7432   -1.4316   61.7714 N.ar    1  ZINC001707162141   -0.5200
     29 H29        -8.7115   -4.0951   58.9204 H       1  ZINC001707162141    0.0600
     30 H30        -8.0084   -3.5267   60.4537 H       1  ZINC001707162141    0.0600
     31 H31        -9.7076   -4.0535   60.3949 H       1  ZINC001707162141    0.0600
     32 H32       -10.8097   -3.1052   58.4525 H       1  ZINC001707162141    0.3300
     33 H33       -10.2265   -0.2981   57.7705 H       1  ZINC001707162141    0.1000
     34 H34        -9.5593   -1.7008   56.9013 H       1  ZINC001707162141    0.0200
     35 H35       -11.1477   -3.3726   55.9001 H       1  ZINC001707162141    0.0700
     36 H36       -12.2610   -3.3908   57.2895 H       1  ZINC001707162141    0.0700
     37 H37       -12.7038   -4.9332   54.6932 H       1  ZINC001707162141    0.0500
     38 H38       -13.8167   -4.9091   56.0822 H       1  ZINC001707162141    0.0600
     39 H39       -14.4086   -4.4778   54.4598 H       1  ZINC001707162141    0.0600
     40 H40       -13.6818   -2.3547   53.3878 H       1  ZINC001707162141    0.0700
     41 H41       -11.9700   -2.7729   53.6422 H       1  ZINC001707162141    0.0700
     42 H42       -13.4140   -0.2927   54.6852 H       1  ZINC001707162141    0.0600
     43 H43       -12.1644   -0.3424   53.4151 H       1  ZINC001707162141    0.0800
     44 H44        -9.9092   -0.0508   53.0471 H       1  ZINC001707162141    0.0800
     45 H45       -11.0544    1.2144   53.5532 H       1  ZINC001707162141    0.0800
     46 H46        -9.3271    2.5620   54.4827 H       1  ZINC001707162141    0.0700
     47 H47        -8.1655    1.2132   54.4916 H       1  ZINC001707162141    0.0700
     48 H48        -9.3706    2.2497   51.9045 H       1  ZINC001707162141    0.0600
     49 H49        -7.9195    2.9945   52.6172 H       1  ZINC001707162141    0.0600
     50 H50        -7.9155   -0.0505   52.2692 H       1  ZINC001707162141    0.1000
     51 H51        -5.8013    2.2506   52.0008 H       1  ZINC001707162141    0.0900
     52 H52        -5.4561    0.4422   51.8895 H       1  ZINC001707162141    0.0900
     53 H53        -7.0339    0.2628   49.9115 H       1  ZINC001707162141    0.0900
     54 H54        -7.3790    2.0710   50.0228 H       1  ZINC001707162141    0.0900
     55 H55       -11.9230    0.5688   62.0805 H       1  ZINC001707162141    0.1600
     56 H56       -10.3099    0.4971   63.9709 H       1  ZINC001707162141    0.1400
     57 H57        -8.2294   -0.8386   63.7080 H       1  ZINC001707162141    0.1600
@<TRIPOS>BOND
     1     1     2    1
     2     1    29    1
     3     1    30    1
     4     1    31    1
     5     2     3    1
     6     2     4    1
     7     2    23    1
     8     4     5    1
     9     4    32    1
    10     5     6    1
    11     5    33    1
    12     5    34    1
    13     6     7    1
    14     6    14    1
    15     6     8    1
    16     8     9    1
    17     8    35    1
    18     8    36    1
    19     9    10    1
    20     9    11    1
    21     9    12    1
    22    11    37    1
    23    11    38    1
    24    11    39    1
    25    12    13    1
    26    12    40    1
    27    12    41    1
    28    13    14    1
    29    13    42    1
    30    13    43    1
    31    14    15   am
    32    15    16    2
    33    15    17    1
    34    17    18    1
    35    17    44    1
    36    17    45    1
    37    18    19    1
    38    18    46    1
    39    18    47    1
    40    19    20    1
    41    19    48    1
    42    19    49    1
    43    20    22    1
    44    20    21    1
    45    20    50    1
    46    21    22    1
    47    21    51    1
    48    21    52    1
    49    22    53    1
    50    22    54    1
    51    23    28   ar
    52    23    24   ar
    53    24    25   ar
    54    25    26   ar
    55    25    55    1
    56    26    27   ar
    57    26    56    1
    58    27    28   ar
    59    27    57    1
@<TRIPOS>SUBSTRUCTURE
     1 ZINC001707162141        1 TEMP              0 ****  ****    0 ROOT


##########                                Name:    ZINC000864730443
##########                DOCK_Rotatable_Bonds:                  10
##########                         Heavy_Atoms:                  25
##########                    Molecular_Weight:             356.462
##########                DOCK_Rotatable_Bonds:                  10
##########                       Formal_Charge:           0.0299988
##########                     HBond_Acceptors:                   7
##########                        HBond_Donors:                   2
##########                         Heavy_Atoms:                  25
##########                          Grid_Score:          -32.457363
##########                     Grid_vdw_energy:          -31.466642
##########                      Grid_es_energy:           -0.990720
##########           Internal_energy_repulsive:           20.982525

@<TRIPOS>MOLECULE
ZINC000864730443
 57 58 1 0 0
SMALL
USER_CHARGES


@<TRIPOS>ATOM
      1 C1        -13.1808   -3.2015   54.9599 C.3     1  ZINC000864730443   -0.1800
      2 C2        -11.7890   -3.1520   54.3263 C.3     1  ZINC000864730443    0.1400
      3 C3        -11.7655   -4.0351   53.0772 C.3     1  ZINC000864730443   -0.1800
      4 C4        -11.4566   -1.7100   53.9377 C.3     1  ZINC000864730443   -0.1400
      5 O5        -10.8060   -3.6354   55.2794 O.3     1  ZINC000864730443   -0.3600
      6 C6        -11.1661   -3.6462   56.5766 C.2     1  ZINC000864730443    0.6500
      7 O7        -11.6095   -4.6617   57.0755 O.2     1  ZINC000864730443   -0.5700
      8 N8        -11.0348   -2.5311   57.3218 N.am    1  ZINC000864730443   -0.7100
      9 C9        -11.4250   -2.5434   58.7339 C.3     1  ZINC000864730443    0.1500
     10 C10       -10.5533   -1.5563   59.5126 C.3     1  ZINC000864730443   -0.1300
     11 C11        -9.7152   -0.7560   58.5493 C.2     1  ZINC000864730443    0.5300
     12 O12        -8.5292   -0.9861   58.4414 O.2     1  ZINC000864730443   -0.5300
     13 N13       -10.2834    0.2155   57.8078 N.am    1  ZINC000864730443   -0.7200
     14 C14        -9.4686    0.9935   56.8713 C.3     1  ZINC000864730443    0.1200
     15 C15        -8.8615    2.1944   57.5994 C.3     1  ZINC000864730443   -0.1300
     16 C16        -7.9073    2.9324   56.6582 C.3     1  ZINC000864730443    0.0800
     17 H17        -8.4557    3.3434   55.8106 H       1  ZINC000864730443    0.0800
     18 C18        -7.1680    4.0618   57.4190 C.3     1  ZINC000864730443   -0.1500
     19 C19        -5.8860    4.2091   56.5549 C.3     1  ZINC000864730443   -0.1600
     20 C20        -5.6333    2.7576   56.0935 C.3     1  ZINC000864730443    0.0500
     21 O21        -6.8735    2.0462   56.2008 O.3     1  ZINC000864730443   -0.3800
     22 C22       -11.4473   -0.6121   60.3222 C.3     1  ZINC000864730443   -0.1000
     23 C23       -10.5633    0.3198   61.1569 C.3     1  ZINC000864730443   -0.1600
     24 C24        -9.6484   -0.5222   62.0501 C.3     1  ZINC000864730443    0.0600
     25 O25        -8.8670   -1.3996   61.2367 O.3     1  ZINC000864730443   -0.3700
     26 C26        -9.6387   -2.3258   60.4693 C.3     1  ZINC000864730443    0.0800
     27 H27       -13.4177   -4.2288   55.2366 H       1  ZINC000864730443    0.0900
     28 H28       -13.1976   -2.5724   55.8498 H       1  ZINC000864730443    0.0600
     29 H29       -13.9187   -2.8387   54.2444 H       1  ZINC000864730443    0.0700
     30 H30       -12.5035   -3.6723   52.3618 H       1  ZINC000864730443    0.0700
     31 H31       -10.7740   -3.9998   52.6258 H       1  ZINC000864730443    0.0600
     32 H32       -12.0024   -5.0624   53.3540 H       1  ZINC000864730443    0.0900
     33 H33       -11.4733   -1.0808   54.8277 H       1  ZINC000864730443    0.0700
     34 H34       -10.4650   -1.6747   53.4864 H       1  ZINC000864730443    0.0700
     35 H35       -12.1946   -1.3472   53.2223 H       1  ZINC000864730443    0.0800
     36 H36       -10.6820   -1.7201   56.9233 H       1  ZINC000864730443    0.4100
     37 H37       -12.4719   -2.2533   58.8241 H       1  ZINC000864730443    0.0900
     38 H38       -11.2896   -3.5461   59.1394 H       1  ZINC000864730443    0.0800
     39 H39       -11.2319    0.3995   57.8941 H       1  ZINC000864730443    0.4000
     40 H40        -8.6695    0.3658   56.4768 H       1  ZINC000864730443    0.0700
     41 H41       -10.0939    1.3444   56.0503 H       1  ZINC000864730443    0.0700
     42 H42        -9.6576    2.8699   57.9127 H       1  ZINC000864730443    0.0800
     43 H43        -8.3127    1.8488   58.4754 H       1  ZINC000864730443    0.0800
     44 H44        -7.7506    4.9830   57.4178 H       1  ZINC000864730443    0.0900
     45 H45        -6.9231    3.7553   58.4360 H       1  ZINC000864730443    0.0800
     46 H46        -6.0667    4.8617   55.7008 H       1  ZINC000864730443    0.0800
     47 H47        -5.0534    4.5757   57.1553 H       1  ZINC000864730443    0.0800
     48 H48        -5.2944    2.7527   55.0575 H       1  ZINC000864730443    0.0700
     49 H49        -4.8824    2.2921   56.7317 H       1  ZINC000864730443    0.0700
     50 H50       -12.0618   -0.0205   59.6436 H       1  ZINC000864730443    0.0800
     51 H51       -12.0890   -1.1947   60.9831 H       1  ZINC000864730443    0.0800
     52 H52        -9.9574    0.9374   60.4940 H       1  ZINC000864730443    0.0900
     53 H53       -11.1916    0.9582   61.7780 H       1  ZINC000864730443    0.0800
     54 H54        -8.9872    0.1348   62.6151 H       1  ZINC000864730443    0.1000
     55 H55       -10.2542   -1.1094   62.7401 H       1  ZINC000864730443    0.0500
     56 H56       -10.2444   -2.9366   61.1388 H       1  ZINC000864730443    0.0700
     57 H57        -8.9706   -2.9681   59.8957 H       1  ZINC000864730443    0.1000
@<TRIPOS>BOND
     1     1     2    1
     2     1    27    1
     3     1    28    1
     4     1    29    1
     5     2     3    1
     6     2     4    1
     7     2     5    1
     8     3    30    1
     9     3    31    1
    10     3    32    1
    11     4    33    1
    12     4    34    1
    13     4    35    1
    14     5     6    1
    15     6     7    2
    16     6     8   am
    17     8     9    1
    18     8    36    1
    19     9    10    1
    20     9    37    1
    21     9    38    1
    22    10    26    1
    23    10    11    1
    24    10    22    1
    25    11    12    2
    26    11    13   am
    27    13    14    1
    28    13    39    1
    29    14    15    1
    30    14    40    1
    31    14    41    1
    32    15    16    1
    33    15    42    1
    34    15    43    1
    35    16    17    1
    36    16    21    1
    37    16    18    1
    38    18    19    1
    39    18    44    1
    40    18    45    1
    41    19    20    1
    42    19    46    1
    43    19    47    1
    44    20    21    1
    45    20    48    1
    46    20    49    1
    47    22    23    1
    48    22    50    1
    49    22    51    1
    50    23    24    1
    51    23    52    1
    52    23    53    1
    53    24    25    1
    54    24    54    1
    55    24    55    1
    56    25    26    1
    57    26    56    1
    58    26    57    1
@<TRIPOS>SUBSTRUCTURE
     1 ZINC000864730443        1 TEMP              0 ****  ****    0 ROOT


##########                                Name:    ZINC000949401225
##########                DOCK_Rotatable_Bonds:                   7
##########                         Heavy_Atoms:                  24
##########                    Molecular_Weight:             332.403
##########                DOCK_Rotatable_Bonds:                   7
##########                       Formal_Charge:                0.03
##########                     HBond_Acceptors:                   7
##########                        HBond_Donors:                   1
##########                         Heavy_Atoms:                  24
##########                          Grid_Score:          -32.448780
##########                     Grid_vdw_energy:          -31.713022
##########                      Grid_es_energy:           -0.735756
##########           Internal_energy_repulsive:           10.181804

@<TRIPOS>MOLECULE
ZINC000949401225
 48 50 1 0 0
SMALL
USER_CHARGES


@<TRIPOS>ATOM
      1 C1        -13.4621    2.3510   49.9683 C.3     1  ZINC000949401225    0.0700
      2 N2        -12.9463    1.2759   50.8194 N.pl3   1  ZINC000949401225   -0.4500
      3 C3        -11.8013    1.3475   51.5580 C.2     1  ZINC000949401225   -0.0100
      4 C4        -11.6342    0.1857   52.2145 C.2     1  ZINC000949401225   -0.1700
      5 C5        -12.7715   -0.6639   51.8454 C.2     1  ZINC000949401225   -0.2400
      6 C6        -13.0380   -2.0364   52.3083 C.2     1  ZINC000949401225    0.5900
      7 O7        -14.0157   -2.6356   51.9032 O.2     1  ZINC000949401225   -0.5500
      8 N8        -12.1984   -2.6281   53.1808 N.am    1  ZINC000949401225   -0.7300
      9 C9        -12.4625   -3.9940   53.6399 C.3     1  ZINC000949401225    0.1200
     10 C10       -13.3107   -3.9495   54.9125 C.3     1  ZINC000949401225    0.1200
     11 H11       -14.1109   -3.2112   54.8598 H       1  ZINC000949401225    0.1000
     12 C12       -13.7850   -5.3326   55.3797 C.3     1  ZINC000949401225   -0.1500
     13 C13       -13.4902   -4.7648   56.7750 C.3     1  ZINC000949401225    0.1000
     14 N14       -12.5134   -3.8620   56.1451 N.am    1  ZINC000949401225   -0.6400
     15 C15       -11.3843   -3.2339   56.5288 C.2     1  ZINC000949401225    0.5500
     16 O16       -10.7846   -2.5307   55.7433 O.2     1  ZINC000949401225   -0.5200
     17 C17       -10.8670   -3.4053   57.9338 C.3     1  ZINC000949401225   -0.1400
     18 C18       -10.0271   -2.1862   58.3203 C.3     1  ZINC000949401225    0.1500
     19 H19        -9.2374   -2.0249   57.5865 H       1  ZINC000949401225    0.0900
     20 C20       -10.9227   -0.9319   58.4262 C.3     1  ZINC000949401225   -0.1200
     21 C21       -10.2632   -0.1719   59.6003 C.3     1  ZINC000949401225   -0.1600
     22 C22        -9.5645   -1.2523   60.3959 C.2     1  ZINC000949401225    0.5200
     23 O23        -9.1654   -1.1285   61.5344 O.2     1  ZINC000949401225   -0.5300
     24 N24        -9.4489   -2.3707   59.6565 N.am    1  ZINC000949401225   -0.6200
     25 C25        -8.8286   -3.6119   60.1265 C.3     1  ZINC000949401225    0.0900
     26 C26       -13.5376    0.0780   50.9891 C.2     1  ZINC000949401225    0.0800
     27 H27       -14.1213    2.9926   50.5529 H       1  ZINC000949401225    0.0800
     28 H28       -12.6300    2.9401   49.5827 H       1  ZINC000949401225    0.0900
     29 H29       -14.0187    1.9202   49.1360 H       1  ZINC000949401225    0.0900
     30 H30       -11.1376    2.1980   51.6073 H       1  ZINC000949401225    0.1700
     31 H31       -10.8237   -0.0708   52.8807 H       1  ZINC000949401225    0.1500
     32 H32       -11.4194   -2.1497   53.5048 H       1  ZINC000949401225    0.4000
     33 H33       -12.9993   -4.5406   52.8644 H       1  ZINC000949401225    0.0700
     34 H34       -11.5179   -4.4957   53.8502 H       1  ZINC000949401225    0.0900
     35 H35       -14.8401   -5.5303   55.1914 H       1  ZINC000949401225    0.1000
     36 H36       -13.1310   -6.1527   55.0837 H       1  ZINC000949401225    0.1000
     37 H37       -14.3380   -4.2433   57.2194 H       1  ZINC000949401225    0.0900
     38 H38       -13.0385   -5.4897   57.4522 H       1  ZINC000949401225    0.0800
     39 H39       -11.7074   -3.5003   58.6214 H       1  ZINC000949401225    0.1000
     40 H40       -10.2507   -4.3027   57.9871 H       1  ZINC000949401225    0.1000
     41 H41       -10.8813   -0.3445   57.5090 H       1  ZINC000949401225    0.1000
     42 H42       -11.9500   -1.2053   58.6665 H       1  ZINC000949401225    0.0800
     43 H43        -9.5411    0.5543   59.2270 H       1  ZINC000949401225    0.1100
     44 H44       -11.0210    0.3208   60.2095 H       1  ZINC000949401225    0.1000
     45 H45        -8.5608   -3.5088   61.1781 H       1  ZINC000949401225    0.0800
     46 H46        -9.5321   -4.4364   60.0099 H       1  ZINC000949401225    0.0600
     47 H47        -7.9316   -3.8141   59.5413 H       1  ZINC000949401225    0.0600
     48 H48       -14.4569   -0.2445   50.5230 H       1  ZINC000949401225    0.1800
@<TRIPOS>BOND
     1     1     2    1
     2     1    27    1
     3     1    28    1
     4     1    29    1
     5     2    26    1
     6     2     3    1
     7     3     4    2
     8     3    30    1
     9     4     5    1
    10     4    31    1
    11     5     6    1
    12     5    26    2
    13     6     7    2
    14     6     8   am
    15     8     9    1
    16     8    32    1
    17     9    10    1
    18     9    33    1
    19     9    34    1
    20    10    11    1
    21    10    14    1
    22    10    12    1
    23    12    13    1
    24    12    35    1
    25    12    36    1
    26    13    14    1
    27    13    37    1
    28    13    38    1
    29    14    15   am
    30    15    16    2
    31    15    17    1
    32    17    18    1
    33    17    39    1
    34    17    40    1
    35    18    19    1
    36    18    24    1
    37    18    20    1
    38    20    21    1
    39    20    41    1
    40    20    42    1
    41    21    22    1
    42    21    43    1
    43    21    44    1
    44    22    23    2
    45    22    24   am
    46    24    25    1
    47    25    45    1
    48    25    46    1
    49    25    47    1
    50    26    48    1
@<TRIPOS>SUBSTRUCTURE
     1 ZINC000949401225        1 TEMP              0 ****  ****    0 ROOT


##########                                Name:    ZINC001272744746
##########                DOCK_Rotatable_Bonds:                   6
##########                         Heavy_Atoms:                  25
##########                    Molecular_Weight:             348.417
##########                DOCK_Rotatable_Bonds:                   6
##########                       Formal_Charge:           0.0299999
##########                     HBond_Acceptors:                   6
##########                        HBond_Donors:                   1
##########                         Heavy_Atoms:                  25
##########                          Grid_Score:          -32.428444
##########                     Grid_vdw_energy:          -32.427433
##########                      Grid_es_energy:           -0.001010
##########           Internal_energy_repulsive:           24.644320

@<TRIPOS>MOLECULE
ZINC001272744746
 50 52 1 0 0
SMALL
USER_CHARGES


@<TRIPOS>ATOM
      1 C1         -9.1777   -1.6131   61.4630 C.2     1  ZINC001272744746   -0.1700
      2 C2         -9.5427   -2.7477   60.9195 C.2     1  ZINC001272744746   -0.1700
      3 C3         -9.1235   -3.0774   59.5100 C.3     1  ZINC001272744746    0.1500
      4 N4        -10.1770   -2.6664   58.5785 N.am    1  ZINC001272744746   -0.6100
      5 C5        -11.5009   -3.2974   58.4936 C.3     1  ZINC001272744746    0.0700
      6 C6        -12.3777   -2.3010   57.7159 C.3     1  ZINC001272744746    0.1100
      7 C7        -11.3385   -1.5105   56.9000 C.3     1  ZINC001272744746   -0.1500
      8 C8        -10.0582   -1.6594   57.6949 C.2     1  ZINC001272744746    0.5200
      9 O9         -9.0673   -0.9753   57.5505 O.2     1  ZINC001272744746   -0.5200
     10 C10       -13.1188   -1.3787   58.6739 C.3     1  ZINC001272744746   -0.1000
     11 C11       -14.1296   -2.1959   59.4859 C.3     1  ZINC001272744746   -0.1200
     12 C12       -15.0712   -2.9252   58.5235 C.3     1  ZINC001272744746   -0.1200
     13 C13       -14.2524   -3.8253   57.5955 C.3     1  ZINC001272744746    0.0500
     14 N14       -13.3012   -3.0054   56.8317 N.3     1  ZINC001272744746   -0.5100
     15 C15       -12.5723   -3.8208   55.8509 C.3     1  ZINC001272744746    0.0800
     16 C16       -12.8907   -3.3371   54.4597 C.ar    1  ZINC001272744746   -0.0200
     17 C17       -14.1974   -3.3457   54.0090 C.ar    1  ZINC001272744746   -0.1700
     18 C18       -14.4946   -2.9023   52.7315 C.ar    1  ZINC001272744746    0.1200
     19 F19       -15.7725   -2.9116   52.2930 F       1  ZINC001272744746   -0.1200
     20 C20       -13.4797   -2.4480   51.9023 C.ar    1  ZINC001272744746    0.0400
     21 O21       -13.7692   -2.0112   50.6468 O.3     1  ZINC001272744746   -0.4700
     22 C22       -12.1654   -2.4395   52.3576 C.ar    1  ZINC001272744746    0.1300
     23 O23       -11.1670   -1.9946   51.5485 O.3     1  ZINC001272744746   -0.3000
     24 C24        -9.8357   -2.0628   52.0634 C.3     1  ZINC001272744746    0.0200
     25 C25       -11.8759   -2.8804   53.6392 C.ar    1  ZINC001272744746   -0.1800
     26 H26        -8.5762   -0.9139   60.9011 H       1  ZINC001272744746    0.1000
     27 H27        -9.4818   -1.3749   62.4715 H       1  ZINC001272744746    0.1000
     28 H28       -10.1442   -3.4469   61.4814 H       1  ZINC001272744746    0.1100
     29 H29        -8.2011   -2.5478   59.2720 H       1  ZINC001272744746    0.0900
     30 H30        -8.9591   -4.1514   59.4216 H       1  ZINC001272744746    0.0800
     31 H31       -11.4350   -4.2427   57.9551 H       1  ZINC001272744746    0.0700
     32 H32       -11.9073   -3.4584   59.4922 H       1  ZINC001272744746    0.0900
     33 H33       -11.2268   -1.9407   55.9047 H       1  ZINC001272744746    0.1100
     34 H34       -11.6235   -0.4605   56.8335 H       1  ZINC001272744746    0.1100
     35 H35       -12.4054   -0.9074   59.3500 H       1  ZINC001272744746    0.0700
     36 H36       -13.6443   -0.6109   58.1062 H       1  ZINC001272744746    0.0800
     37 H37       -13.6000   -2.9244   60.1000 H       1  ZINC001272744746    0.0600
     38 H38       -14.7073   -1.5290   60.1259 H       1  ZINC001272744746    0.0700
     39 H39       -15.7735   -3.5336   59.0933 H       1  ZINC001272744746    0.0700
     40 H40       -15.6210   -2.1950   57.9297 H       1  ZINC001272744746    0.0700
     41 H41       -13.7057   -4.5579   58.1892 H       1  ZINC001272744746    0.0400
     42 H42       -14.9213   -4.3419   56.9071 H       1  ZINC001272744746    0.0900
     43 H43       -11.5007   -3.7326   56.0299 H       1  ZINC001272744746    0.1000
     44 H44       -12.8727   -4.8639   55.9507 H       1  ZINC001272744746    0.0600
     45 H45       -14.9879   -3.6994   54.6543 H       1  ZINC001272744746    0.1400
     46 H46       -14.7015   -2.0980   50.4053 H       1  ZINC001272744746    0.3900
     47 H47        -9.5873   -3.0992   52.2922 H       1  ZINC001272744746    0.0600
     48 H48        -9.1382   -1.6779   51.3194 H       1  ZINC001272744746    0.1100
     49 H49        -9.7660   -1.4636   52.9711 H       1  ZINC001272744746    0.0600
     50 H50       -10.8561   -2.8745   53.9945 H       1  ZINC001272744746    0.1400
@<TRIPOS>BOND
     1     1     2    2
     2     1    26    1
     3     1    27    1
     4     2     3    1
     5     2    28    1
     6     3     4    1
     7     3    29    1
     8     3    30    1
     9     4     8   am
    10     4     5    1
    11     5     6    1
    12     5    31    1
    13     5    32    1
    14     6    14    1
    15     6     7    1
    16     6    10    1
    17     7     8    1
    18     7    33    1
    19     7    34    1
    20     8     9    2
    21    10    11    1
    22    10    35    1
    23    10    36    1
    24    11    12    1
    25    11    37    1
    26    11    38    1
    27    12    13    1
    28    12    39    1
    29    12    40    1
    30    13    14    1
    31    13    41    1
    32    13    42    1
    33    14    15    1
    34    15    16    1
    35    15    43    1
    36    15    44    1
    37    16    25   ar
    38    16    17   ar
    39    17    18   ar
    40    17    45    1
    41    18    19    1
    42    18    20   ar
    43    20    21    1
    44    20    22   ar
    45    21    46    1
    46    22    23    1
    47    22    25   ar
    48    23    24    1
    49    24    47    1
    50    24    48    1
    51    24    49    1
    52    25    50    1
@<TRIPOS>SUBSTRUCTURE
     1 ZINC001272744746        1 TEMP              0 ****  ****    0 ROOT


##########                                Name:    ZINC000623581528
##########                DOCK_Rotatable_Bonds:                   5
##########                         Heavy_Atoms:                  26
##########                    Molecular_Weight:             355.369
##########                DOCK_Rotatable_Bonds:                   5
##########                       Formal_Charge:        -4.47035e-07
##########                     HBond_Acceptors:                   7
##########                        HBond_Donors:                   2
##########                         Heavy_Atoms:                  26
##########                          Grid_Score:          -32.424946
##########                     Grid_vdw_energy:          -32.985447
##########                      Grid_es_energy:            0.560499
##########           Internal_energy_repulsive:            4.360660

@<TRIPOS>MOLECULE
ZINC000623581528
 44 47 1 0 0
SMALL
USER_CHARGES


@<TRIPOS>ATOM
      1 C1        -11.4674    0.4137   62.4717 C.3     1  ZINC000623581528    0.1000
      2 N2        -10.3731   -0.5361   62.2556 N.am    1  ZINC000623581528   -0.5500
      3 C3         -9.2274   -0.6062   62.9618 C.2     1  ZINC000623581528    0.6300
      4 O4         -8.9312    0.1175   63.8930 O.2     1  ZINC000623581528   -0.4800
      5 O5         -8.4640   -1.5987   62.4781 O.3     1  ZINC000623581528   -0.2300
      6 C6         -9.1077   -2.1917   61.4431 C.ar    1  ZINC000623581528    0.0400
      7 C7         -8.7789   -3.2444   60.6040 C.ar    1  ZINC000623581528   -0.0800
      8 C8         -9.6581   -3.6359   59.6126 C.ar    1  ZINC000623581528   -0.0900
      9 C9        -10.8666   -2.9815   59.4527 C.ar    1  ZINC000623581528   -0.0900
     10 C10       -11.8188   -3.4161   58.3684 C.3     1  ZINC000623581528    0.1800
     11 N11       -11.3833   -2.8605   57.0846 N.am    1  ZINC000623581528   -0.7400
     12 C12       -11.8306   -3.3967   55.9319 C.2     1  ZINC000623581528    0.7100
     13 O13       -12.5944   -4.3424   55.9573 O.2     1  ZINC000623581528   -0.5800
     14 N14       -11.4313   -2.8846   54.7509 N.am    1  ZINC000623581528   -0.7300
     15 C15       -11.9189   -3.4663   53.4978 C.3     1  ZINC000623581528    0.2000
     16 H16       -11.9145   -4.5544   53.5598 H       1  ZINC000623581528    0.1000
     17 C17       -11.0488   -2.9938   52.3138 C.3     1  ZINC000623581528   -0.1300
     18 C18       -11.8094   -1.7443   51.8215 C.3     1  ZINC000623581528   -0.0800
     19 C19       -13.2497   -1.9714   52.2281 C.ar    1  ZINC000623581528   -0.1000
     20 C20       -14.4123   -1.3603   51.7895 C.ar    1  ZINC000623581528   -0.0800
     21 C21       -15.6349   -1.7359   52.3106 C.ar    1  ZINC000623581528   -0.1400
     22 C22       -15.6991   -2.7268   53.2753 C.ar    1  ZINC000623581528    0.0900
     23 F23       -16.8935   -3.0970   53.7868 F       1  ZINC000623581528   -0.1400
     24 C24       -14.5377   -3.3376   53.7144 C.ar    1  ZINC000623581528   -0.1200
     25 C25       -13.3136   -2.9631   53.1929 C.ar    1  ZINC000623581528   -0.0900
     26 C26       -11.2032   -1.9307   60.2845 C.ar    1  ZINC000623581528   -0.0800
     27 C27       -10.3293   -1.5367   61.2852 C.ar    1  ZINC000623581528    0.0700
     28 H28       -12.1787   -0.0071   63.1824 H       1  ZINC000623581528    0.0800
     29 H29       -11.0660    1.3463   62.8685 H       1  ZINC000623581528    0.0900
     30 H30       -11.9716    0.6087   61.5252 H       1  ZINC000623581528    0.0900
     31 H31        -7.8365   -3.7578   60.7245 H       1  ZINC000623581528    0.1500
     32 H32        -9.4006   -4.4564   58.9593 H       1  ZINC000623581528    0.1500
     33 H33       -11.8291   -4.5044   58.3086 H       1  ZINC000623581528    0.0800
     34 H34       -12.8212   -3.0553   58.5991 H       1  ZINC000623581528    0.0800
     35 H35       -10.7731   -2.1068   57.0644 H       1  ZINC000623581528    0.4000
     36 H36       -10.8210   -2.1309   54.7305 H       1  ZINC000623581528    0.4000
     37 H37       -10.0465   -2.7295   52.6508 H       1  ZINC000623581528    0.0900
     38 H38       -11.0086   -3.7549   51.5346 H       1  ZINC000623581528    0.0900
     39 H39       -11.4171   -0.8486   52.3031 H       1  ZINC000623581528    0.0800
     40 H40       -11.7316   -1.6568   50.7377 H       1  ZINC000623581528    0.0800
     41 H41       -14.3630   -0.5873   51.0370 H       1  ZINC000623581528    0.1300
     42 H42       -16.5396   -1.2572   51.9662 H       1  ZINC000623581528    0.1400
     43 H43       -14.5873   -4.1106   54.4670 H       1  ZINC000623581528    0.1400
     44 H44       -12.1469   -1.4211   60.1582 H       1  ZINC000623581528    0.1400
@<TRIPOS>BOND
     1     1     2    1
     2     1    28    1
     3     1    29    1
     4     1    30    1
     5     2    27    1
     6     2     3   am
     7     3     4    2
     8     3     5    1
     9     5     6    1
    10     6    27   ar
    11     6     7   ar
    12     7     8   ar
    13     7    31    1
    14     8     9   ar
    15     8    32    1
    16     9    10    1
    17     9    26   ar
    18    10    11    1
    19    10    33    1
    20    10    34    1
    21    11    12   am
    22    11    35    1
    23    12    13    2
    24    12    14   am
    25    14    15    1
    26    14    36    1
    27    15    16    1
    28    15    25    1
    29    15    17    1
    30    17    18    1
    31    17    37    1
    32    17    38    1
    33    18    19    1
    34    18    39    1
    35    18    40    1
    36    19    25   ar
    37    19    20   ar
    38    20    21   ar
    39    20    41    1
    40    21    22   ar
    41    21    42    1
    42    22    23    1
    43    22    24   ar
    44    24    25   ar
    45    24    43    1
    46    26    27   ar
    47    26    44    1
@<TRIPOS>SUBSTRUCTURE
     1 ZINC000623581528        1 TEMP              0 ****  ****    0 ROOT


##########                                Name:    ZINC001023148918
##########                DOCK_Rotatable_Bonds:                   6
##########                         Heavy_Atoms:                  25
##########                    Molecular_Weight:             348.402
##########                DOCK_Rotatable_Bonds:                   6
##########                       Formal_Charge:           0.0199999
##########                     HBond_Acceptors:                   8
##########                        HBond_Donors:                   2
##########                         Heavy_Atoms:                  25
##########                          Grid_Score:          -32.403419
##########                     Grid_vdw_energy:          -30.916107
##########                      Grid_es_energy:           -1.487311
##########           Internal_energy_repulsive:           12.082932

@<TRIPOS>MOLECULE
ZINC001023148918
 49 52 1 0 0
SMALL
USER_CHARGES


@<TRIPOS>ATOM
      1 C1         -8.3272    1.2226   66.9978 C.3     1  ZINC001023148918   -0.0700
      2 C2         -9.0352    1.4843   65.6933 C.2     1  ZINC001023148918    0.0200
      3 N3         -9.6476    2.5909   65.3577 N.2     1  ZINC001023148918   -0.2700
      4 N4        -10.1506    2.4978   64.1795 N.pl3   1  ZINC001023148918   -0.2500
      5 C5        -10.9018    3.5537   63.4963 C.3     1  ZINC001023148918    0.0800
      6 C6         -9.8781    1.2638   63.6608 C.2     1  ZINC001023148918   -0.0400
      7 C7        -10.2743    0.7545   62.3382 C.2     1  ZINC001023148918    0.6000
      8 O8        -10.9198    1.4575   61.5842 O.2     1  ZINC001023148918   -0.5300
      9 N9         -9.9219   -0.4909   61.9624 N.am    1  ZINC001023148918   -0.7000
     10 C10       -10.3165   -0.9979   60.6457 C.3     1  ZINC001023148918    0.1500
     11 H11       -10.1687   -0.2394   59.8770 H       1  ZINC001023148918    0.1200
     12 C12       -11.7832   -1.4964   60.6593 C.3     1  ZINC001023148918    0.1000
     13 N13       -11.8555   -2.4860   59.5689 N.am    1  ZINC001023148918   -0.6200
     14 C14       -12.9728   -2.8433   58.9054 C.2     1  ZINC001023148918    0.5400
     15 O15       -14.0369   -2.3372   59.1928 O.2     1  ZINC001023148918   -0.5200
     16 C16       -12.8999   -3.8717   57.8062 C.3     1  ZINC001023148918   -0.1400
     17 H17       -12.1078   -4.5933   58.0063 H       1  ZINC001023148918    0.1100
     18 C18       -12.6876   -3.1907   56.4302 C.3     1  ZINC001023148918   -0.1400
     19 C19       -13.9654   -3.6038   55.6400 C.3     1  ZINC001023148918    0.0600
     20 H20       -14.2227   -2.9606   54.7983 H       1  ZINC001023148918    0.1300
     21 C21       -13.7668   -5.1099   55.2937 C.3     1  ZINC001023148918   -0.1500
     22 C22       -13.9702   -5.8066   56.6633 C.3     1  ZINC001023148918   -0.1500
     23 C23       -14.2710   -4.5914   57.6319 C.3     1  ZINC001023148918    0.0900
     24 H24       -14.8023   -4.8453   58.5491 H       1  ZINC001023148918    0.1400
     25 O25       -14.9581   -3.6690   56.7160 O.3     1  ZINC001023148918   -0.3600
     26 C26       -10.5068   -3.0179   59.3249 C.3     1  ZINC001023148918    0.0700
     27 C27        -9.5473   -2.2997   60.2977 C.3     1  ZINC001023148918    0.0900
     28 H28        -9.3836   -2.9009   61.1921 H       1  ZINC001023148918    0.0800
     29 O29        -8.3055   -2.0028   59.6561 O.3     1  ZINC001023148918   -0.5500
     30 C30        -9.1489    0.5909   64.6257 C.2     1  ZINC001023148918   -0.1800
     31 H31        -7.2840    1.5263   66.9123 H       1  ZINC001023148918    0.0800
     32 H32        -8.8078    1.7928   67.7927 H       1  ZINC001023148918    0.0700
     33 H33        -8.3780    0.1591   67.2316 H       1  ZINC001023148918    0.0800
     34 H34       -10.2079    4.2185   62.9818 H       1  ZINC001023148918    0.0900
     35 H35       -11.5807    3.1054   62.7709 H       1  ZINC001023148918    0.1100
     36 H36       -11.4756    4.1228   64.2276 H       1  ZINC001023148918    0.0900
     37 H37        -9.4072   -1.0515   62.5637 H       1  ZINC001023148918    0.4100
     38 H38       -12.0151   -1.9669   61.6147 H       1  ZINC001023148918    0.0800
     39 H39       -12.4667   -0.6694   60.4670 H       1  ZINC001023148918    0.0900
     40 H40       -12.6345   -2.1075   56.5395 H       1  ZINC001023148918    0.0800
     41 H41       -11.7913   -3.5752   55.9432 H       1  ZINC001023148918    0.0900
     42 H42       -14.5163   -5.4432   54.5759 H       1  ZINC001023148918    0.0800
     43 H43       -12.7607   -5.2896   54.9147 H       1  ZINC001023148918    0.0800
     44 H44       -14.8209   -6.4870   56.6280 H       1  ZINC001023148918    0.0800
     45 H45       -13.0654   -6.3333   56.9667 H       1  ZINC001023148918    0.0800
     46 H46       -10.4918   -4.0914   59.5139 H       1  ZINC001023148918    0.0800
     47 H47       -10.2095   -2.8165   58.2958 H       1  ZINC001023148918    0.0900
     48 H48        -7.5646   -1.8886   60.2669 H       1  ZINC001023148918    0.3900
     49 H49        -8.7568   -0.4137   64.5680 H       1  ZINC001023148918    0.1600
@<TRIPOS>BOND
     1     1     2    1
     2     1    31    1
     3     1    32    1
     4     1    33    1
     5     2    30    1
     6     2     3    2
     7     3     4    1
     8     4     5    1
     9     4     6    1
    10     5    34    1
    11     5    35    1
    12     5    36    1
    13     6     7    1
    14     6    30    2
    15     7     8    2
    16     7     9   am
    17     9    10    1
    18     9    37    1
    19    10    11    1
    20    10    27    1
    21    10    12    1
    22    12    13    1
    23    12    38    1
    24    12    39    1
    25    13    14   am
    26    13    26    1
    27    14    15    2
    28    14    16    1
    29    16    17    1
    30    16    23    1
    31    16    18    1
    32    18    19    1
    33    18    40    1
    34    18    41    1
    35    19    20    1
    36    19    25    1
    37    19    21    1
    38    21    22    1
    39    21    42    1
    40    21    43    1
    41    22    23    1
    42    22    44    1
    43    22    45    1
    44    23    24    1
    45    23    25    1
    46    26    27    1
    47    26    46    1
    48    26    47    1
    49    27    28    1
    50    27    29    1
    51    29    48    1
    52    30    49    1
@<TRIPOS>SUBSTRUCTURE
     1 ZINC001023148918        1 TEMP              0 ****  ****    0 ROOT


##########                                Name:    ZINC001067316277
##########                DOCK_Rotatable_Bonds:                   5
##########                         Heavy_Atoms:                  24
##########                    Molecular_Weight:             345.469
##########                DOCK_Rotatable_Bonds:                   5
##########                       Formal_Charge:          -0.0200007
##########                     HBond_Acceptors:                   7
##########                        HBond_Donors:                   2
##########                         Heavy_Atoms:                  24
##########                          Grid_Score:          -32.400009
##########                     Grid_vdw_energy:          -30.695663
##########                      Grid_es_energy:           -1.704347
##########           Internal_energy_repulsive:            8.906863

@<TRIPOS>MOLECULE
ZINC001067316277
 47 49 1 0 0
SMALL
USER_CHARGES


@<TRIPOS>ATOM
      1 C1        -10.7128   -1.6415   52.6357 C.3     1  ZINC001067316277   -0.1400
      2 S2        -11.1789   -3.3904   52.6480 S.3     1  ZINC001067316277   -0.0400
      3 C3        -12.0088   -3.4750   54.1999 C.ar    1  ZINC001067316277    0.1800
      4 C4        -13.1656   -4.2450   54.3442 C.ar    1  ZINC001067316277   -0.2400
      5 C5        -13.7826   -4.2817   55.5790 C.ar    1  ZINC001067316277    0.1900
      6 N6        -13.2640   -3.5910   56.5840 N.ar    1  ZINC001067316277   -0.5600
      7 C7        -12.1652   -2.8688   56.4190 C.ar    1  ZINC001067316277    0.5100
      8 N8        -11.6550   -2.1616   57.4937 N.3     1  ZINC001067316277   -0.4600
      9 C9        -12.7307   -1.7131   58.3870 C.3     1  ZINC001067316277    0.0700
     10 C10       -12.1468   -0.8151   59.4801 C.3     1  ZINC001067316277   -0.1300
     11 C11       -11.0954   -1.5991   60.2702 C.3     1  ZINC001067316277    0.1600
     12 H12       -11.5677   -2.4513   60.7588 H       1  ZINC001067316277    0.0900
     13 N13       -10.4923   -0.7273   61.2815 N.am    1  ZINC001067316277   -0.7200
     14 C14       -11.2028   -0.3629   62.3672 C.2     1  ZINC001067316277    0.5900
     15 O15       -12.3456   -0.7568   62.5070 O.2     1  ZINC001067316277   -0.5300
     16 C16       -10.5984    0.5085   63.3805 C.2     1  ZINC001067316277   -0.0600
     17 C17       -11.2258    1.0149   64.4989 C.2     1  ZINC001067316277   -0.1000
     18 C18       -10.2841    1.7900   65.1827 C.2     1  ZINC001067316277   -0.2100
     19 C19        -9.1236    1.7448   64.4855 C.2     1  ZINC001067316277    0.0300
     20 N20        -9.2998    0.9649   63.3912 N.pl3   1  ZINC001067316277   -0.5400
     21 C21       -10.0119   -2.0960   59.3092 C.3     1  ZINC001067316277   -0.0700
     22 C22        -9.3123   -0.8978   58.6644 C.3     1  ZINC001067316277   -0.1400
     23 C23        -8.9880   -2.9306   60.0814 C.3     1  ZINC001067316277   -0.1400
     24 C24       -10.6577   -2.9569   58.2212 C.3     1  ZINC001067316277    0.0800
     25 N25       -11.5402   -2.8112   55.2530 N.ar    1  ZINC001067316277   -0.5400
     26 H26       -11.6105   -1.0258   52.6921 H       1  ZINC001067316277    0.0900
     27 H27       -10.0728   -1.4300   53.4923 H       1  ZINC001067316277    0.0900
     28 H28       -10.1744   -1.4153   51.7153 H       1  ZINC001067316277    0.1000
     29 H29       -13.5684   -4.7986   53.5089 H       1  ZINC001067316277    0.1500
     30 H30       -14.6787   -4.8668   55.7242 H       1  ZINC001067316277    0.1700
     31 H31       -13.4695   -1.1534   57.8134 H       1  ZINC001067316277    0.1000
     32 H32       -13.2074   -2.5797   58.8451 H       1  ZINC001067316277    0.0500
     33 H33       -11.6821    0.0587   59.0233 H       1  ZINC001067316277    0.0800
     34 H34       -12.9432   -0.4951   60.1520 H       1  ZINC001067316277    0.0800
     35 H35        -9.5817   -0.4123   61.1695 H       1  ZINC001067316277    0.3900
     36 H36       -12.2514    0.8450   64.7916 H       1  ZINC001067316277    0.1500
     37 H37       -10.4522    2.3294   66.1031 H       1  ZINC001067316277    0.1500
     38 H38        -8.2065    2.2455   64.7591 H       1  ZINC001067316277    0.1700
     39 H39        -8.6247    0.7661   62.7236 H       1  ZINC001067316277    0.4100
     40 H40        -8.8555   -0.2831   59.4401 H       1  ZINC001067316277    0.0500
     41 H41        -8.5411   -1.2521   57.9805 H       1  ZINC001067316277    0.0600
     42 H42       -10.0419   -0.3044   58.1134 H       1  ZINC001067316277    0.0700
     43 H43        -9.4866   -3.7848   60.5393 H       1  ZINC001067316277    0.0600
     44 H44        -8.2169   -3.2840   59.3968 H       1  ZINC001067316277    0.0600
     45 H45        -8.5309   -2.3173   60.8580 H       1  ZINC001067316277    0.0600
     46 H46       -11.1440   -3.8176   58.6800 H       1  ZINC001067316277    0.0600
     47 H47        -9.8907   -3.3006   57.5271 H       1  ZINC001067316277    0.1000
@<TRIPOS>BOND
     1     1     2    1
     2     1    26    1
     3     1    27    1
     4     1    28    1
     5     2     3    1
     6     3    25   ar
     7     3     4   ar
     8     4     5   ar
     9     4    29    1
    10     5     6   ar
    11     5    30    1
    12     6     7   ar
    13     7     8    1
    14     7    25   ar
    15     8    24    1
    16     8     9    1
    17     9    10    1
    18     9    31    1
    19     9    32    1
    20    10    11    1
    21    10    33    1
    22    10    34    1
    23    11    12    1
    24    11    13    1
    25    11    21    1
    26    13    14   am
    27    13    35    1
    28    14    15    2
    29    14    16    1
    30    16    20    1
    31    16    17    2
    32    17    18    1
    33    17    36    1
    34    18    19    2
    35    18    37    1
    36    19    20    1
    37    19    38    1
    38    20    39    1
    39    21    22    1
    40    21    23    1
    41    21    24    1
    42    22    40    1
    43    22    41    1
    44    22    42    1
    45    23    43    1
    46    23    44    1
    47    23    45    1
    48    24    46    1
    49    24    47    1
@<TRIPOS>SUBSTRUCTURE
     1 ZINC001067316277        1 TEMP              0 ****  ****    0 ROOT


##########                                Name:    ZINC000013551438
##########                DOCK_Rotatable_Bonds:                   5
##########                         Heavy_Atoms:                  27
##########                    Molecular_Weight:             377.467
##########                DOCK_Rotatable_Bonds:                   5
##########                       Formal_Charge:          -0.0300005
##########                     HBond_Acceptors:                   6
##########                        HBond_Donors:                   1
##########                         Heavy_Atoms:                  27
##########                          Grid_Score:          -32.387672
##########                     Grid_vdw_energy:          -32.439770
##########                      Grid_es_energy:            0.052097
##########           Internal_energy_repulsive:            6.981925

@<TRIPOS>MOLECULE
ZINC000013551438
 46 49 1 0 0
SMALL
USER_CHARGES


@<TRIPOS>ATOM
      1 C1         -9.6291   -1.8237   60.0732 C.3     1  <0>         0.0300
      2 O2        -10.8101   -1.3963   59.3914 O.3     1  <0>        -0.3200
      3 C3        -10.9922   -1.8561   58.1246 C.ar    1  <0>         0.1000
      4 C4        -11.5393   -3.1192   57.9171 C.ar    1  <0>        -0.1800
      5 C5        -11.7301   -3.5995   56.6405 C.ar    1  <0>        -0.0900
      6 C6        -11.3751   -2.8205   55.5440 C.ar    1  <0>         0.0700
      7 C7        -10.8231   -1.5450   55.7515 C.ar    1  <0>        -0.0400
      8 C8        -10.6389   -1.0659   57.0481 C.ar    1  <0>        -0.1100
      9 C9        -10.5618   -0.9914   54.4134 C.2     1  <0>        -0.1200
     10 C10        -9.9783    0.3368   54.1036 C.2     1  <0>         0.1700
     11 C11       -10.6343    1.4926   54.3193 C.2     1  <0>        -0.3000
     12 S12        -9.5864    2.8161   53.8162 S.3     1  <0>         0.2500
     13 C13        -8.3711    1.7022   53.3653 C.2     1  <0>         0.2400
     14 N14        -7.1362    2.0493   52.8338 N.am    1  <0>        -0.6200
     15 C15        -6.6573    1.3938   51.7580 C.2     1  <0>         0.5600
     16 O16        -7.3072    0.4997   51.2520 O.2     1  <0>        -0.5000
     17 C17        -5.3420    1.7620   51.1933 C.ar    1  <0>        -0.1400
     18 C18        -4.9831    1.3327   49.9144 C.ar    1  <0>        -0.0800
     19 C19        -3.7542    1.6803   49.3930 C.ar    1  <0>        -0.1300
     20 C20        -2.8781    2.4528   50.1348 C.ar    1  <0>        -0.0800
     21 C21        -3.2273    2.8812   51.4032 C.ar    1  <0>        -0.1300
     22 C22        -4.4555    2.5456   51.9342 C.ar    1  <0>        -0.0500
     23 N23        -8.7621    0.4894   53.5951 N.2     1  <0>        -0.5000
     24 C24       -10.9563   -1.9289   53.5192 C.2     1  <0>         0.1300
     25 C25       -10.8715   -1.7885   52.0211 C.3     1  <0>        -0.0900
     26 N26       -11.4425   -3.0230   54.1810 N.pl3   1  <0>        -0.4800
     27 C27       -11.9584   -4.2332   53.5365 C.3     1  <0>         0.0800
     28 H28        -8.7503   -1.5005   59.5152 H       1  <0>         0.0500
     29 H29        -9.6072   -1.3858   61.0712 H       1  <0>         0.1000
     30 H30        -9.6291   -2.9107   60.1533 H       1  <0>         0.0500
     31 H31       -11.8162   -3.7283   58.7650 H       1  <0>         0.1300
     32 H32       -12.1550   -4.5811   56.4908 H       1  <0>         0.1200
     33 H33       -10.2148   -0.0859   57.2099 H       1  <0>         0.1300
     34 H34       -11.6287    1.5909   54.7289 H       1  <0>         0.1800
     35 H35        -6.6182    2.7636   53.2368 H       1  <0>         0.4200
     36 H36        -5.6660    0.7294   49.3346 H       1  <0>         0.1300
     37 H37        -3.4751    1.3485   48.4039 H       1  <0>         0.1300
     38 H38        -1.9171    2.7222   49.7220 H       1  <0>         0.1300
     39 H39        -2.5387    3.4837   51.9771 H       1  <0>         0.1300
     40 H40        -4.7270    2.8809   52.9242 H       1  <0>         0.1400
     41 H41        -9.9487   -2.2462   51.6649 H       1  <0>         0.0800
     42 H42       -11.7251   -2.2859   51.5607 H       1  <0>         0.0700
     43 H43       -10.8796   -0.7317   51.7543 H       1  <0>         0.0800
     44 H44       -11.1441   -4.9430   53.3916 H       1  <0>         0.0700
     45 H45       -12.7244   -4.6830   54.1682 H       1  <0>         0.0800
     46 H46       -12.3906   -3.9740   52.5700 H       1  <0>         0.0800
@<TRIPOS>BOND
     1     1     2    1
     2     1    28    1
     3     1    29    1
     4     1    30    1
     5     2     3    1
     6     3     8   ar
     7     3     4   ar
     8     4     5   ar
     9     4    31    1
    10     5     6   ar
    11     5    32    1
    12     6    26    1
    13     6     7   ar
    14     7     8   ar
    15     7     9    1
    16     8    33    1
    17     9    10    1
    18     9    24    2
    19    10    23    1
    20    10    11    2
    21    11    12    1
    22    11    34    1
    23    12    13    1
    24    13    14    1
    25    13    23    2
    26    14    15   am
    27    14    35    1
    28    15    16    2
    29    15    17    1
    30    17    22   ar
    31    17    18   ar
    32    18    19   ar
    33    18    36    1
    34    19    20   ar
    35    19    37    1
    36    20    21   ar
    37    20    38    1
    38    21    22   ar
    39    21    39    1
    40    22    40    1
    41    24    25    1
    42    24    26    1
    43    25    41    1
    44    25    42    1
    45    25    43    1
    46    26    27    1
    47    27    44    1
    48    27    45    1
    49    27    46    1
@<TRIPOS>SUBSTRUCTURE
     1 <0>         1 TEMP              0 ****  ****    0 ROOT


##########                                Name:    ZINC000065993627
##########                DOCK_Rotatable_Bonds:                   7
##########                         Heavy_Atoms:                  28
##########                    Molecular_Weight:             382.462
##########                DOCK_Rotatable_Bonds:                   7
##########                       Formal_Charge:          -0.0200002
##########                     HBond_Acceptors:                   7
##########                        HBond_Donors:                   2
##########                         Heavy_Atoms:                  28
##########                          Grid_Score:          -32.371677
##########                     Grid_vdw_energy:          -30.506741
##########                      Grid_es_energy:           -1.864935
##########           Internal_energy_repulsive:           15.404279

@<TRIPOS>MOLECULE
ZINC000065993627
 54 56 1 0 0
SMALL
USER_CHARGES


@<TRIPOS>ATOM
      1 C1         -8.1495    2.4323   56.6831 C.3     1  ZINC000065993627   -0.1200
      2 C2         -8.6048    1.6309   55.4908 C.ar    1  ZINC000065993627   -0.0700
      3 C3         -7.9141    1.7148   54.2984 C.ar    1  ZINC000065993627   -0.1800
      4 C4         -8.3336    0.9761   53.1994 C.ar    1  ZINC000065993627    0.2000
      5 N5         -7.6336    1.0607   51.9910 N.pl3   1  ZINC000065993627   -0.6400
      6 C6         -7.3179    2.3713   51.4174 C.3     1  ZINC000065993627    0.1000
      7 C7         -7.2160   -0.1614   51.2992 C.3     1  ZINC000065993627    0.0900
      8 C8         -9.4477    0.1535   53.3005 C.ar    1  ZINC000065993627   -0.1800
      9 C9        -10.1383    0.0699   54.4934 C.ar    1  ZINC000065993627   -0.0800
     10 C10        -9.7154    0.8039   55.5932 C.ar    1  ZINC000065993627    0.1100
     11 N11       -10.4164    0.7185   56.8044 N.am    1  ZINC000065993627   -0.6800
     12 C12       -10.1518   -0.2826   57.6670 C.2     1  ZINC000065993627    0.7000
     13 O13        -9.3051   -1.1118   57.3950 O.2     1  ZINC000065993627   -0.5700
     14 N14       -10.8257   -0.3646   58.8313 N.am    1  ZINC000065993627   -0.7400
     15 C15       -10.5368   -1.4517   59.7699 C.3     1  ZINC000065993627    0.2100
     16 H16        -9.7205   -2.0603   59.3808 H       1  ZINC000065993627    0.1000
     17 C17       -11.7838   -2.3213   59.9425 C.3     1  ZINC000065993627   -0.1600
     18 C18       -10.1401   -0.8722   61.1032 C.ar    1  ZINC000065993627   -0.1200
     19 C19       -10.8436    0.1965   61.6278 C.ar    1  ZINC000065993627   -0.0800
     20 C20       -10.4825    0.7300   62.8495 C.ar    1  ZINC000065993627   -0.1500
     21 C21        -9.4117    0.1919   63.5512 C.ar    1  ZINC000065993627    0.1800
     22 N22        -9.0435    0.7299   64.7896 N.am    1  ZINC000065993627   -0.5700
     23 C23        -9.1566    2.1448   65.1753 C.3     1  ZINC000065993627    0.0600
     24 C24        -8.6185    2.1758   66.6189 C.3     1  ZINC000065993627    0.0400
     25 O25        -8.2622    0.7897   66.8924 O.3     1  ZINC000065993627   -0.3200
     26 C26        -8.5357    0.0389   65.8194 C.2     1  ZINC000065993627    0.6400
     27 O27        -8.3335   -1.1586   65.7791 O.2     1  ZINC000065993627   -0.5000
     28 C28        -8.7073   -0.8812   63.0217 C.ar    1  ZINC000065993627   -0.1500
     29 C29        -9.0769   -1.4138   61.8021 C.ar    1  ZINC000065993627   -0.0800
     30 H30        -7.4341    1.8481   57.2619 H       1  ZINC000065993627    0.0700
     31 H31        -7.6759    3.3530   56.3427 H       1  ZINC000065993627    0.0700
     32 H32        -9.0095    2.6753   57.3073 H       1  ZINC000065993627    0.0600
     33 H33        -7.0478    2.3550   54.2199 H       1  ZINC000065993627    0.1200
     34 H34        -6.3509    2.7080   51.7910 H       1  ZINC000065993627    0.0500
     35 H35        -7.2805    2.2929   50.3309 H       1  ZINC000065993627    0.0700
     36 H36        -8.0876    3.0880   51.7037 H       1  ZINC000065993627    0.0700
     37 H37        -7.6134   -1.0300   51.8244 H       1  ZINC000065993627    0.0800
     38 H38        -7.5966   -0.1488   50.2780 H       1  ZINC000065993627    0.0500
     39 H39        -6.1275   -0.2146   51.2807 H       1  ZINC000065993627    0.0500
     40 H40        -9.7743   -0.4207   52.4460 H       1  ZINC000065993627    0.1300
     41 H41       -11.0049   -0.5699   54.5720 H       1  ZINC000065993627    0.1500
     42 H42       -11.0918    1.3800   57.0214 H       1  ZINC000065993627    0.4000
     43 H43       -11.5020    0.2961   59.0479 H       1  ZINC000065993627    0.4000
     44 H44       -12.0708   -2.7405   58.9781 H       1  ZINC000065993627    0.0700
     45 H45       -11.5689   -3.1302   60.6409 H       1  ZINC000065993627    0.0700
     46 H46       -12.6002   -1.7127   60.3316 H       1  ZINC000065993627    0.0600
     47 H47       -11.6761    0.6148   61.0814 H       1  ZINC000065993627    0.1300
     48 H48       -11.0320    1.5648   63.2586 H       1  ZINC000065993627    0.1600
     49 H49        -8.5441    2.7692   64.5249 H       1  ZINC000065993627    0.1000
     50 H50       -10.1975    2.4671   65.1478 H       1  ZINC000065993627    0.1000
     51 H51        -7.7392    2.8166   66.6853 H       1  ZINC000065993627    0.1100
     52 H52        -9.3922    2.5146   67.3079 H       1  ZINC000065993627    0.1100
     53 H53        -7.8738   -1.3016   63.5648 H       1  ZINC000065993627    0.1300
     54 H54        -8.5297   -2.2486   61.3899 H       1  ZINC000065993627    0.1300
@<TRIPOS>BOND
     1     1     2    1
     2     1    30    1
     3     1    31    1
     4     1    32    1
     5     2    10   ar
     6     2     3   ar
     7     3     4   ar
     8     3    33    1
     9     4     5    1
    10     4     8   ar
    11     5     6    1
    12     5     7    1
    13     6    34    1
    14     6    35    1
    15     6    36    1
    16     7    37    1
    17     7    38    1
    18     7    39    1
    19     8     9   ar
    20     8    40    1
    21     9    10   ar
    22     9    41    1
    23    10    11    1
    24    11    12   am
    25    11    42    1
    26    12    13    2
    27    12    14   am
    28    14    15    1
    29    14    43    1
    30    15    16    1
    31    15    17    1
    32    15    18    1
    33    17    44    1
    34    17    45    1
    35    17    46    1
    36    18    29   ar
    37    18    19   ar
    38    19    20   ar
    39    19    47    1
    40    20    21   ar
    41    20    48    1
    42    21    22    1
    43    21    28   ar
    44    22    26   am
    45    22    23    1
    46    23    24    1
    47    23    49    1
    48    23    50    1
    49    24    25    1
    50    24    51    1
    51    24    52    1
    52    25    26    1
    53    26    27    2
    54    28    29   ar
    55    28    53    1
    56    29    54    1
@<TRIPOS>SUBSTRUCTURE
     1 ZINC000065993627        1 TEMP              0 ****  ****    0 ROOT


##########                                Name:    ZINC000129637895
##########                DOCK_Rotatable_Bonds:                   7
##########                         Heavy_Atoms:                  26
##########                    Molecular_Weight:             374.464
##########                DOCK_Rotatable_Bonds:                   7
##########                       Formal_Charge:        -5.51343e-07
##########                     HBond_Acceptors:                   8
##########                        HBond_Donors:                   1
##########                         Heavy_Atoms:                  26
##########                          Grid_Score:          -32.363365
##########                     Grid_vdw_energy:          -31.807673
##########                      Grid_es_energy:           -0.555693
##########           Internal_energy_repulsive:           12.434994

@<TRIPOS>MOLECULE
ZINC000129637895
 48 50 1 0 0
SMALL
USER_CHARGES


@<TRIPOS>ATOM
      1 C1         -3.7588    3.3690   53.8595 C.3     1  ZINC000129637895   -0.1500
      2 C2         -4.8984    3.6723   52.8847 C.3     1  ZINC000129637895   -0.0500
      3 C3         -4.8911    2.6565   51.7717 C.2     1  ZINC000129637895    0.0300
      4 C4         -5.9955    1.9972   51.3780 C.2     1  ZINC000129637895   -0.0200
      5 N5         -7.2738    2.1426   51.9154 N.am    1  ZINC000129637895   -0.5900
      6 C6         -7.9214    1.0706   52.4134 C.2     1  ZINC000129637895    0.5000
      7 O7         -7.3911   -0.0214   52.3953 O.2     1  ZINC000129637895   -0.4800
      8 C8         -9.2906    1.2260   52.9870 C.2     1  ZINC000129637895    0.5200
      9 O9        -10.2657    1.0578   52.2842 O.2     1  ZINC000129637895   -0.5100
     10 N10        -9.4441    1.5531   54.2854 N.am    1  ZINC000129637895   -0.5800
     11 C11       -10.7841    1.7052   54.8722 C.3     1  ZINC000129637895    0.0800
     12 C12       -10.8560    0.8588   56.1476 C.3     1  ZINC000129637895    0.0400
     13 N13        -9.7439    1.2223   57.0360 N.3     1  ZINC000129637895   -0.4900
     14 C14        -9.8672    0.5915   58.2761 C.ar    1  ZINC000129637895    0.1500
     15 C15        -9.9487    1.3500   59.4373 C.ar    1  ZINC000129637895   -0.2100
     16 C16       -10.0710    0.7258   60.6637 C.ar    1  ZINC000129637895   -0.0500
     17 C17       -10.1122   -0.6533   60.7389 C.ar    1  ZINC000129637895   -0.2300
     18 C18       -10.0312   -1.4162   59.5821 C.ar    1  ZINC000129637895    0.1500
     19 O19       -10.0724   -2.7725   59.6580 O.3     1  ZINC000129637895   -0.3200
     20 C20        -9.0242   -3.4136   60.3875 C.3     1  ZINC000129637895    0.0300
     21 C21        -9.9141   -0.7940   58.3495 C.ar    1  ZINC000129637895   -0.1700
     22 C22        -8.4466    0.9186   56.4175 C.3     1  ZINC000129637895    0.0400
     23 C23        -8.2761    1.7615   55.1547 C.3     1  ZINC000129637895    0.1100
     24 S24        -5.5399    0.9180   50.0618 S.3     1  ZINC000129637895    0.2400
     25 C25        -3.9204    1.4549   50.1690 C.2     1  ZINC000129637895   -0.0300
     26 N26        -3.8032    2.3425   51.0975 N.2     1  ZINC000129637895   -0.4500
     27 H27        -3.8938    2.3713   54.2773 H       1  ZINC000129637895    0.0600
     28 H28        -2.8066    3.4159   53.3312 H       1  ZINC000129637895    0.0500
     29 H29        -3.7642    4.1039   54.6646 H       1  ZINC000129637895    0.0700
     30 H30        -5.8507    3.6255   53.4131 H       1  ZINC000129637895    0.0900
     31 H31        -4.7635    4.6700   52.4670 H       1  ZINC000129637895    0.0700
     32 H32        -7.6970    3.0153   51.9309 H       1  ZINC000129637895    0.4300
     33 H33       -10.9597    2.7526   55.1175 H       1  ZINC000129637895    0.0900
     34 H34       -11.5361    1.3615   54.1619 H       1  ZINC000129637895    0.1400
     35 H35       -11.8026    1.0451   56.6549 H       1  ZINC000129637895    0.1000
     36 H36       -10.7837   -0.1973   55.8879 H       1  ZINC000129637895    0.0500
     37 H37        -9.9160    2.4280   59.3812 H       1  ZINC000129637895    0.1300
     38 H38       -10.1343    1.3169   61.5653 H       1  ZINC000129637895    0.1300
     39 H39       -10.2072   -1.1383   61.6993 H       1  ZINC000129637895    0.1300
     40 H40        -8.0643   -3.1749   59.9299 H       1  ZINC000129637895    0.0600
     41 H41        -9.0322   -3.0622   61.4193 H       1  ZINC000129637895    0.0600
     42 H42        -9.1768   -4.4927   60.3700 H       1  ZINC000129637895    0.1000
     43 H43        -9.8513   -1.3860   57.4484 H       1  ZINC000129637895    0.1300
     44 H44        -7.6459    1.1481   57.1205 H       1  ZINC000129637895    0.1000
     45 H45        -8.4078   -0.1384   56.1540 H       1  ZINC000129637895    0.0500
     46 H46        -7.3694    1.4577   54.6314 H       1  ZINC000129637895    0.1100
     47 H47        -8.2110    2.8156   55.4240 H       1  ZINC000129637895    0.0900
     48 H48        -3.1116    1.1042   49.5451 H       1  ZINC000129637895    0.2000
@<TRIPOS>BOND
     1     1     2    1
     2     1    27    1
     3     1    28    1
     4     1    29    1
     5     2     3    1
     6     2    30    1
     7     2    31    1
     8     3    26    1
     9     3     4    2
    10     4     5    1
    11     4    24    1
    12     5     6   am
    13     5    32    1
    14     6     7    2
    15     6     8    1
    16     8     9    2
    17     8    10   am
    18    10    23    1
    19    10    11    1
    20    11    12    1
    21    11    33    1
    22    11    34    1
    23    12    13    1
    24    12    35    1
    25    12    36    1
    26    13    14    1
    27    13    22    1
    28    14    21   ar
    29    14    15   ar
    30    15    16   ar
    31    15    37    1
    32    16    17   ar
    33    16    38    1
    34    17    18   ar
    35    17    39    1
    36    18    19    1
    37    18    21   ar
    38    19    20    1
    39    20    40    1
    40    20    41    1
    41    20    42    1
    42    21    43    1
    43    22    23    1
    44    22    44    1
    45    22    45    1
    46    23    46    1
    47    23    47    1
    48    24    25    1
    49    25    26    2
    50    25    48    1
@<TRIPOS>SUBSTRUCTURE
     1 ZINC000129637895        1 TEMP              0 ****  ****    0 ROOT


##########                                Name:    ZINC001015955459
##########                DOCK_Rotatable_Bonds:                   6
##########                         Heavy_Atoms:                  24
##########                    Molecular_Weight:             347.844
##########                DOCK_Rotatable_Bonds:                   6
##########                       Formal_Charge:          -0.0200002
##########                     HBond_Acceptors:                   6
##########                        HBond_Donors:                   1
##########                         Heavy_Atoms:                  24
##########                          Grid_Score:          -32.353508
##########                     Grid_vdw_energy:          -32.582207
##########                      Grid_es_energy:            0.228699
##########           Internal_energy_repulsive:            8.657807

@<TRIPOS>MOLECULE
ZINC001015955459
 46 48 1 0 0
SMALL
USER_CHARGES


@<TRIPOS>ATOM
      1 C1         -6.5957    2.7494   52.1649 C.3     1  ZINC001015955459   -0.1500
      2 C2         -7.8528    1.9311   52.4663 C.3     1  ZINC001015955459   -0.0300
      3 C3         -9.0651    2.6003   51.8155 C.3     1  ZINC001015955459   -0.1500
      4 C4         -7.6905    0.5388   51.9130 C.2     1  ZINC001015955459    0.0600
      5 C5         -8.4885   -0.5332   52.1703 C.2     1  ZINC001015955459   -0.0800
      6 C6         -9.6757   -0.5516   53.0439 C.2     1  ZINC001015955459    0.6100
      7 O7         -9.7133    0.1537   54.0339 O.2     1  ZINC001015955459   -0.5300
      8 N8        -10.7197   -1.3501   52.7455 N.am    1  ZINC001015955459   -0.7100
      9 C9        -11.9003   -1.3671   53.6127 C.3     1  ZINC001015955459    0.1400
     10 H10       -12.2260   -0.3493   53.8276 H       1  ZINC001015955459    0.1000
     11 C11       -13.0411   -2.1659   52.9492 C.3     1  ZINC001015955459   -0.1300
     12 C12       -13.3276   -3.3346   53.9162 C.3     1  ZINC001015955459    0.0200
     13 N13       -12.8473   -2.8538   55.2372 N.3     1  ZINC001015955459   -0.4900
     14 C14       -12.5865   -3.9795   56.1443 C.3     1  ZINC001015955459    0.0800
     15 C15       -12.0347   -3.4582   57.4461 C.ar    1  ZINC001015955459   -0.1100
     16 C16       -12.7011   -2.4574   58.1277 C.ar    1  ZINC001015955459   -0.1100
     17 C17       -12.1980   -1.9820   59.3246 C.ar    1  ZINC001015955459   -0.1000
     18 C18       -11.0227   -2.4999   59.8347 C.ar    1  ZINC001015955459   -0.1100
     19 C19       -10.3522   -3.4982   59.1501 C.ar    1  ZINC001015955459   -0.0300
     20 Cl20       -8.8754   -4.1489   59.7900 Cl      1  ZINC001015955459   -0.0700
     21 C21       -10.8590   -3.9771   57.9554 C.ar    1  ZINC001015955459   -0.1000
     22 C22       -11.5911   -2.1196   54.9248 C.3     1  ZINC001015955459    0.0100
     23 N23        -7.9808   -1.5862   51.4739 N.2     1  ZINC001015955459   -0.4600
     24 C24        -6.9350   -1.1805   50.8180 C.2     1  ZINC001015955459    0.1800
     25 O25        -6.7313    0.1199   51.0721 O.3     1  ZINC001015955459   -0.1900
     26 H26        -6.4463    2.8021   51.0866 H       1  ZINC001015955459    0.0600
     27 H27        -6.7131    3.7565   52.5652 H       1  ZINC001015955459    0.0700
     28 H28        -5.7321    2.2727   52.6286 H       1  ZINC001015955459    0.0600
     29 H29        -8.0023    1.8784   53.5447 H       1  ZINC001015955459    0.1300
     30 H30        -9.9607    2.0172   52.0302 H       1  ZINC001015955459    0.0600
     31 H31        -9.1826    3.6074   52.2157 H       1  ZINC001015955459    0.0700
     32 H32        -8.9157    2.6530   50.7372 H       1  ZINC001015955459    0.0600
     33 H33       -10.6893   -1.9136   51.9565 H       1  ZINC001015955459    0.4100
     34 H34       -13.9266   -1.5402   52.8384 H       1  ZINC001015955459    0.0800
     35 H35       -12.7225   -2.5453   51.9782 H       1  ZINC001015955459    0.0700
     36 H36       -14.3968   -3.5436   53.9536 H       1  ZINC001015955459    0.0900
     37 H37       -12.7760   -4.2240   53.6118 H       1  ZINC001015955459    0.0500
     38 H38       -13.5159   -4.5170   56.3328 H       1  ZINC001015955459    0.0900
     39 H39       -11.8628   -4.6543   55.6870 H       1  ZINC001015955459    0.0900
     40 H40       -13.6173   -2.0492   57.7272 H       1  ZINC001015955459    0.1300
     41 H41       -12.7213   -1.2029   59.8588 H       1  ZINC001015955459    0.1300
     42 H42       -10.6273   -2.1253   60.7673 H       1  ZINC001015955459    0.1300
     43 H43       -10.3359   -4.7560   57.4203 H       1  ZINC001015955459    0.1300
     44 H44       -10.7679   -2.8187   54.7772 H       1  ZINC001015955459    0.0700
     45 H45       -11.3534   -1.4138   55.7207 H       1  ZINC001015955459    0.0900
     46 H46        -6.3237   -1.7949   50.1739 H       1  ZINC001015955459    0.2600
@<TRIPOS>BOND
     1     1     2    1
     2     1    26    1
     3     1    27    1
     4     1    28    1
     5     2     3    1
     6     2     4    1
     7     2    29    1
     8     3    30    1
     9     3    31    1
    10     3    32    1
    11     4    25    1
    12     4     5    2
    13     5     6    1
    14     5    23    1
    15     6     7    2
    16     6     8   am
    17     8     9    1
    18     8    33    1
    19     9    10    1
    20     9    22    1
    21     9    11    1
    22    11    12    1
    23    11    34    1
    24    11    35    1
    25    12    13    1
    26    12    36    1
    27    12    37    1
    28    13    14    1
    29    13    22    1
    30    14    15    1
    31    14    38    1
    32    14    39    1
    33    15    21   ar
    34    15    16   ar
    35    16    17   ar
    36    16    40    1
    37    17    18   ar
    38    17    41    1
    39    18    19   ar
    40    18    42    1
    41    19    20    1
    42    19    21   ar
    43    21    43    1
    44    22    44    1
    45    22    45    1
    46    23    24    2
    47    24    25    1
    48    24    46    1
@<TRIPOS>SUBSTRUCTURE
     1 ZINC001015955459        1 TEMP              0 ****  ****    0 ROOT


##########                                Name:    ZINC000826324849
##########                DOCK_Rotatable_Bonds:                   4
##########                         Heavy_Atoms:                  27
##########                    Molecular_Weight:             395.374
##########                DOCK_Rotatable_Bonds:                   4
##########                       Formal_Charge:           0.0400001
##########                     HBond_Acceptors:                  13
##########                        HBond_Donors:                   1
##########                         Heavy_Atoms:                  27
##########                          Grid_Score:          -32.344269
##########                     Grid_vdw_energy:          -30.703072
##########                      Grid_es_energy:           -1.641196
##########           Internal_energy_repulsive:           84.273979

@<TRIPOS>MOLECULE
ZINC000826324849
 41 44 1 0 0
SMALL
USER_CHARGES


@<TRIPOS>ATOM
      1 C1        -11.3347    1.0125   54.2146 C.3     1  ZINC000826324849   -0.0600
      2 C2        -11.6463   -0.4268   54.5350 C.2     1  ZINC000826324849    0.2000
      3 N3        -12.7942   -0.9029   54.9536 N.2     1  ZINC000826324849   -0.4600
      4 C4        -12.6038   -2.2256   55.1054 C.2     1  ZINC000826324849    0.1600
      5 C5        -13.6298   -3.2268   55.5699 C.3     1  ZINC000826324849    0.2200
      6 H6        -14.6266   -2.7917   55.4968 H       1  ZINC000826324849    0.1300
      7 C7        -13.5517   -4.4872   54.7010 C.3     1  ZINC000826324849    0.0600
      8 O8        -14.3934   -5.4980   55.2610 O.3     1  ZINC000826324849   -0.3600
      9 C9        -14.0074   -5.9216   56.5707 C.3     1  ZINC000826324849    0.0400
     10 C10       -14.1090   -4.7346   57.5354 C.3     1  ZINC000826324849    0.0800
     11 N11       -13.3558   -3.6062   56.9650 N.am    1  ZINC000826324849   -1.0100
     12 S12       -12.2322   -2.7888   57.8661 S.o2    1  ZINC000826324849    2.7100
     13 O13       -11.3354   -3.7676   58.3729 O.2     1  ZINC000826324849   -0.9300
     14 O14       -11.8122   -1.6839   57.0774 O.2     1  ZINC000826324849   -0.9300
     15 C15       -13.0723   -2.1142   59.2603 C.ar    1  ZINC000826324849   -0.5800
     16 C16       -14.4498   -2.0295   59.2626 C.ar    1  ZINC000826324849   -0.0400
     17 C17       -15.1120   -1.5002   60.3559 C.ar    1  ZINC000826324849   -0.0800
     18 C18       -14.3992   -1.0524   61.4526 C.ar    1  ZINC000826324849   -0.1100
     19 C19       -13.0186   -1.1321   61.4618 C.ar    1  ZINC000826324849    0.1300
     20 F20       -12.3222   -0.6949   62.5337 F       1  ZINC000826324849   -0.1100
     21 C21       -12.3474   -1.6708   60.3639 C.ar    1  ZINC000826324849    0.0500
     22 C22       -10.8657   -1.7600   60.3669 C.2     1  ZINC000826324849    0.1800
     23 N23       -10.1295   -2.6087   61.0564 N.2     1  ZINC000826324849   -0.2600
     24 N24        -8.8925   -2.3668   60.7873 N.pl3   1  ZINC000826324849   -0.2200
     25 N25        -8.8218   -1.3920   59.9494 N.2     1  ZINC000826324849   -0.0200
     26 N26       -10.0162   -0.9971   59.6646 N.2     1  ZINC000826324849   -0.2600
     27 N27       -11.3728   -2.4817   54.7774 N.2     1  ZINC000826324849   -0.3800
     28 O28       -10.8071   -1.4627   54.4412 O.3     1  ZINC000826324849    0.0900
     29 H29       -10.2987    1.0956   53.8861 H       1  ZINC000826324849    0.1000
     30 H30       -11.9964    1.3595   53.4210 H       1  ZINC000826324849    0.1100
     31 H31       -11.4836    1.6233   55.1050 H       1  ZINC000826324849    0.1100
     32 H32       -13.8860   -4.2538   53.6901 H       1  ZINC000826324849    0.1200
     33 H33       -12.5227   -4.8456   54.6712 H       1  ZINC000826324849    0.0600
     34 H34       -14.6697   -6.7202   56.9050 H       1  ZINC000826324849    0.1200
     35 H35       -12.9801   -6.2852   56.5477 H       1  ZINC000826324849    0.0600
     36 H36       -15.1541   -4.4518   57.6607 H       1  ZINC000826324849    0.0900
     37 H37       -13.6840   -5.0089   58.5009 H       1  ZINC000826324849    0.1100
     38 H38       -15.0123   -2.3770   58.4085 H       1  ZINC000826324849    0.1400
     39 H39       -16.1901   -1.4362   60.3526 H       1  ZINC000826324849    0.1500
     40 H40       -14.9213   -0.6394   62.3030 H       1  ZINC000826324849    0.1500
     41 H41        -8.1339   -2.8439   61.1582 H       1  ZINC000826324849    0.4800
@<TRIPOS>BOND
     1     1     2    1
     2     1    29    1
     3     1    30    1
     4     1    31    1
     5     2    28    1
     6     2     3    2
     7     3     4    1
     8     4     5    1
     9     4    27    2
    10     5     6    1
    11     5    11    1
    12     5     7    1
    13     7     8    1
    14     7    32    1
    15     7    33    1
    16     8     9    1
    17     9    10    1
    18     9    34    1
    19     9    35    1
    20    10    11    1
    21    10    36    1
    22    10    37    1
    23    11    12   am
    24    12    13    2
    25    12    14    2
    26    12    15    1
    27    15    21   ar
    28    15    16   ar
    29    16    17   ar
    30    16    38    1
    31    17    18   ar
    32    17    39    1
    33    18    19   ar
    34    18    40    1
    35    19    20    1
    36    19    21   ar
    37    21    22    1
    38    22    26    1
    39    22    23    2
    40    23    24    1
    41    24    25    1
    42    24    41    1
    43    25    26    2
    44    27    28    1
@<TRIPOS>SUBSTRUCTURE
     1 ZINC000826324849        1 TEMP              0 ****  ****    0 ROOT


##########                                Name:    ZINC000443933644
##########                DOCK_Rotatable_Bonds:                   8
##########                         Heavy_Atoms:                  27
##########                    Molecular_Weight:             402.438
##########                DOCK_Rotatable_Bonds:                   8
##########                       Formal_Charge:          0.00999922
##########                     HBond_Acceptors:                   9
##########                        HBond_Donors:                   2
##########                         Heavy_Atoms:                  27
##########                          Grid_Score:          -32.332359
##########                     Grid_vdw_energy:          -31.429937
##########                      Grid_es_energy:           -0.902421
##########           Internal_energy_repulsive:           27.373951

@<TRIPOS>MOLECULE
ZINC000443933644
 48 49 1 0 0
SMALL
USER_CHARGES


@<TRIPOS>ATOM
      1 C1        -14.2066   -0.3057   48.5935 C.3     1  ZINC000443933644   -0.1500
      2 C2        -13.7955   -1.0491   49.8660 C.3     1  ZINC000443933644   -0.1400
      3 C3        -14.0451   -0.1550   51.0822 C.3     1  ZINC000443933644   -0.1000
      4 H4        -15.0720    0.2098   51.0604 H       1  ZINC000443933644    0.1000
      5 C5        -13.0812    1.0327   51.0483 C.3     1  ZINC000443933644   -0.1700
      6 C6        -13.8171   -0.9605   52.3628 C.3     1  ZINC000443933644    0.1200
      7 H7        -13.1934   -0.3858   53.0475 H       1  ZINC000443933644    0.1300
      8 N8        -13.1475   -2.2214   52.0338 N.am    1  ZINC000443933644   -1.1100
      9 S9        -11.5847   -2.4796   52.5168 S.o2    1  ZINC000443933644    2.6900
     10 O10       -11.2799   -3.8276   52.1858 O.2     1  ZINC000443933644   -0.9400
     11 O11       -10.8300   -1.3731   52.0421 O.2     1  ZINC000443933644   -0.9400
     12 C12       -11.5593   -2.3813   54.2759 C.ar    1  ZINC000443933644   -0.7000
     13 C13       -12.3049   -3.2932   55.0417 C.ar    1  ZINC000443933644    0.0500
     14 C14       -13.0797   -4.2947   54.4310 C.ar    1  ZINC000443933644   -0.1400
     15 C15       -13.7897   -5.1619   55.2031 C.ar    1  ZINC000443933644   -0.0800
     16 C16       -13.7609   -5.0730   56.5935 C.ar    1  ZINC000443933644   -0.1200
     17 C17       -13.0220   -4.1156   57.2191 C.ar    1  ZINC000443933644   -0.0900
     18 C18       -12.2764   -3.2038   56.4554 C.ar    1  ZINC000443933644   -0.0900
     19 C19       -11.4991   -2.1985   57.0686 C.ar    1  ZINC000443933644    0.2300
     20 N20       -11.4566   -2.0915   58.4600 N.am    1  ZINC000443933644   -0.6700
     21 C21       -10.3890   -2.5555   59.1393 C.2     1  ZINC000443933644    0.5100
     22 C22       -10.3432   -2.4400   60.6412 C.3     1  ZINC000443933644   -0.1700
     23 O23        -9.4652   -3.0660   58.5418 O.2     1  ZINC000443933644   -0.5100
     24 C24       -10.7819   -1.3233   56.2817 C.ar    1  ZINC000443933644   -0.1600
     25 C25       -10.8127   -1.4251   54.8942 C.ar    1  ZINC000443933644    0.0400
     26 C26       -15.1639   -1.2562   53.0259 C.3     1  ZINC000443933644    0.4300
     27 F27       -14.9783   -2.1639   54.0741 F       1  ZINC000443933644   -0.1700
     28 F28       -15.7073   -0.0688   53.5278 F       1  ZINC000443933644   -0.1600
     29 F29       -16.0376   -1.8064   52.0818 F       1  ZINC000443933644   -0.1700
     30 H30       -15.2653   -0.0521   48.6469 H       1  ZINC000443933644    0.0500
     31 H31       -13.6185    0.6073   48.5000 H       1  ZINC000443933644    0.0600
     32 H32       -14.0287   -0.9427   47.7270 H       1  ZINC000443933644    0.0600
     33 H33       -14.3835   -1.9621   49.9594 H       1  ZINC000443933644    0.0700
     34 H34       -12.7368   -1.3027   49.8126 H       1  ZINC000443933644    0.0900
     35 H35       -13.3207    1.6711   50.1979 H       1  ZINC000443933644    0.0700
     36 H36       -13.1775    1.6053   51.9709 H       1  ZINC000443933644    0.0600
     37 H37       -12.0585    0.6681   50.9522 H       1  ZINC000443933644    0.0700
     38 H38       -13.6196   -2.9051   51.5332 H       1  ZINC000443933644    0.4300
     39 H39       -13.1118   -4.3752   53.3544 H       1  ZINC000443933644    0.1400
     40 H40       -14.3844   -5.9301   54.7314 H       1  ZINC000443933644    0.1300
     41 H41       -14.3333   -5.7734   57.1835 H       1  ZINC000443933644    0.1300
     42 H42       -13.0096   -4.0580   58.2974 H       1  ZINC000443933644    0.1300
     43 H43       -12.1956   -1.6834   58.9378 H       1  ZINC000443933644    0.4200
     44 H44       -11.2541   -1.9583   60.9964 H       1  ZINC000443933644    0.0800
     45 H45       -10.2634   -3.4347   61.0797 H       1  ZINC000443933644    0.1000
     46 H46        -9.4790   -1.8437   60.9334 H       1  ZINC000443933644    0.1000
     47 H47       -10.1858   -0.5525   56.7474 H       1  ZINC000443933644    0.1500
     48 H48       -10.2427   -0.7281   54.2978 H       1  ZINC000443933644    0.1500
@<TRIPOS>BOND
     1     1     2    1
     2     1    30    1
     3     1    31    1
     4     1    32    1
     5     2     3    1
     6     2    33    1
     7     2    34    1
     8     3     4    1
     9     3     5    1
    10     3     6    1
    11     5    35    1
    12     5    36    1
    13     5    37    1
    14     6     7    1
    15     6     8    1
    16     6    26    1
    17     8     9   am
    18     8    38    1
    19     9    10    2
    20     9    11    2
    21     9    12    1
    22    12    25   ar
    23    12    13   ar
    24    13    18   ar
    25    13    14   ar
    26    14    15   ar
    27    14    39    1
    28    15    16   ar
    29    15    40    1
    30    16    17   ar
    31    16    41    1
    32    17    18   ar
    33    17    42    1
    34    18    19   ar
    35    19    20    1
    36    19    24   ar
    37    20    21   am
    38    20    43    1
    39    21    22    1
    40    21    23    2
    41    22    44    1
    42    22    45    1
    43    22    46    1
    44    24    25   ar
    45    24    47    1
    46    25    48    1
    47    26    27    1
    48    26    28    1
    49    26    29    1
@<TRIPOS>SUBSTRUCTURE
     1 ZINC000443933644        1 TEMP              0 ****  ****    0 ROOT


##########                                Name:    ZINC001456607258
##########                DOCK_Rotatable_Bonds:                   9
##########                         Heavy_Atoms:                  25
##########                    Molecular_Weight:             339.437
##########                DOCK_Rotatable_Bonds:                   9
##########                       Formal_Charge:          -0.0200009
##########                     HBond_Acceptors:                   5
##########                        HBond_Donors:                   2
##########                         Heavy_Atoms:                  25
##########                          Grid_Score:          -32.328552
##########                     Grid_vdw_energy:          -31.385469
##########                      Grid_es_energy:           -0.943082
##########           Internal_energy_repulsive:           10.522925

@<TRIPOS>MOLECULE
ZINC001456607258
 50 52 1 0 0
SMALL
USER_CHARGES


@<TRIPOS>ATOM
      1 C1        -12.9635   -3.7107   54.0735 C.3     1  ZINC001456607258   -0.1600
      2 C2        -13.3971   -4.2577   55.4351 C.3     1  ZINC001456607258   -0.1100
      3 C3        -12.6409   -3.5231   56.5440 C.3     1  ZINC001456607258   -0.1000
      4 H4        -12.4872   -2.4843   56.2523 H       1  ZINC001456607258    0.0900
      5 C5        -11.2852   -4.1958   56.7688 C.3     1  ZINC001456607258   -0.0700
      6 C6        -10.4801   -3.3867   57.7528 C.ar    1  ZINC001456607258   -0.0800
      7 C7        -10.0916   -3.9479   58.9549 C.ar    1  ZINC001456607258   -0.1200
      8 C8         -9.3531   -3.2057   59.8576 C.ar    1  ZINC001456607258   -0.1200
      9 C9         -9.0029   -1.9025   59.5579 C.ar    1  ZINC001456607258   -0.1200
     10 C10        -9.3906   -1.3416   58.3555 C.ar    1  ZINC001456607258   -0.1200
     11 C11       -10.1254   -2.0852   57.4510 C.ar    1  ZINC001456607258   -0.1200
     12 C12       -13.4442   -3.5736   57.8182 C.2     1  ZINC001456607258    0.5200
     13 O13       -13.8285   -4.6394   58.2509 O.2     1  ZINC001456607258   -0.5300
     14 N14       -13.7354   -2.4344   58.4768 N.am    1  ZINC001456607258   -0.7300
     15 C15       -14.5162   -2.4834   59.7154 C.3     1  ZINC001456607258    0.1300
     16 C16       -14.2356   -1.2289   60.5451 C.3     1  ZINC001456607258   -0.1400
     17 C17       -14.6971   -1.3385   62.0096 C.3     1  ZINC001456607258    0.1100
     18 N18       -13.4219   -0.6808   62.3555 N.am    1  ZINC001456607258   -0.6500
     19 C19       -12.9942    0.0628   63.3951 C.2     1  ZINC001456607258    0.6100
     20 O20       -13.7482    0.3098   64.3170 O.2     1  ZINC001456607258   -0.5400
     21 C21       -11.6140    0.5759   63.4148 C.2     1  ZINC001456607258   -0.2300
     22 C22       -10.5286    0.0398   62.7784 C.2     1  ZINC001456607258    0.0400
     23 N23        -9.4556    0.8070   63.0490 N.pl3   1  ZINC001456607258   -0.5500
     24 C24        -9.8095    1.8478   63.8573 C.2     1  ZINC001456607258   -0.0200
     25 C25       -11.1270    1.7689   64.1156 C.2     1  ZINC001456607258   -0.1400
     26 C26       -12.8034   -1.1642   61.1059 C.3     1  ZINC001456607258    0.1100
     27 H27       -13.4325   -4.2945   53.2814 H       1  ZINC001456607258    0.0600
     28 H28       -13.2699   -2.6682   53.9865 H       1  ZINC001456607258    0.0600
     29 H29       -11.8796   -3.7797   53.9826 H       1  ZINC001456607258    0.0600
     30 H30       -14.4687   -4.1051   55.5635 H       1  ZINC001456607258    0.0800
     31 H31       -13.1730   -5.3232   55.4867 H       1  ZINC001456607258    0.0700
     32 H32       -11.4390   -5.2000   57.1638 H       1  ZINC001456607258    0.0800
     33 H33       -10.7480   -4.2559   55.8223 H       1  ZINC001456607258    0.0900
     34 H34       -10.3653   -4.9661   59.1890 H       1  ZINC001456607258    0.1200
     35 H35        -9.0502   -3.6440   60.7970 H       1  ZINC001456607258    0.1200
     36 H36        -8.4266   -1.3224   60.2634 H       1  ZINC001456607258    0.1200
     37 H37        -9.1173   -0.3233   58.1215 H       1  ZINC001456607258    0.1200
     38 H38       -10.4283   -1.6470   56.5115 H       1  ZINC001456607258    0.1200
     39 H39       -13.4279   -1.5820   58.1306 H       1  ZINC001456607258    0.4000
     40 H40       -15.5781   -2.5292   59.4739 H       1  ZINC001456607258    0.0700
     41 H41       -14.2352   -3.3677   60.2873 H       1  ZINC001456607258    0.0800
     42 H42       -14.5549   -0.3118   60.0500 H       1  ZINC001456607258    0.1100
     43 H43       -15.5774   -0.7380   62.2390 H       1  ZINC001456607258    0.0800
     44 H44       -14.7744   -2.3641   62.3704 H       1  ZINC001456607258    0.0900
     45 H45       -10.5315   -0.8481   62.1636 H       1  ZINC001456607258    0.1700
     46 H46        -8.5590    0.6429   62.7172 H       1  ZINC001456607258    0.4200
     47 H47        -9.1418    2.6128   64.2251 H       1  ZINC001456607258    0.1700
     48 H48       -11.7089    2.4451   64.7243 H       1  ZINC001456607258    0.1500
     49 H49       -12.3245   -2.1388   61.2011 H       1  ZINC001456607258    0.0900
     50 H50       -12.1718   -0.4247   60.6136 H       1  ZINC001456607258    0.0900
@<TRIPOS>BOND
     1     1     2    1
     2     1    27    1
     3     1    28    1
     4     1    29    1
     5     2     3    1
     6     2    30    1
     7     2    31    1
     8     3     4    1
     9     3     5    1
    10     3    12    1
    11     5     6    1
    12     5    32    1
    13     5    33    1
    14     6    11   ar
    15     6     7   ar
    16     7     8   ar
    17     7    34    1
    18     8     9   ar
    19     8    35    1
    20     9    10   ar
    21     9    36    1
    22    10    11   ar
    23    10    37    1
    24    11    38    1
    25    12    13    2
    26    12    14   am
    27    14    15    1
    28    14    39    1
    29    15    16    1
    30    15    40    1
    31    15    41    1
    32    16    26    1
    33    16    17    1
    34    16    42    1
    35    17    18    1
    36    17    43    1
    37    17    44    1
    38    18    19   am
    39    18    26    1
    40    19    20    2
    41    19    21    1
    42    21    25    1
    43    21    22    2
    44    22    23    1
    45    22    45    1
    46    23    24    1
    47    23    46    1
    48    24    25    2
    49    24    47    1
    50    25    48    1
    51    26    49    1
    52    26    50    1
@<TRIPOS>SUBSTRUCTURE
     1 ZINC001456607258        1 TEMP              0 ****  ****    0 ROOT


##########                                Name:    ZINC000032503012
##########                DOCK_Rotatable_Bonds:                   8
##########                         Heavy_Atoms:                  27
##########                    Molecular_Weight:             390.503
##########                DOCK_Rotatable_Bonds:                   8
##########                       Formal_Charge:           0.0099995
##########                     HBond_Acceptors:                   7
##########                        HBond_Donors:                   2
##########                         Heavy_Atoms:                  27
##########                          Grid_Score:          -32.324482
##########                     Grid_vdw_energy:          -30.222425
##########                      Grid_es_energy:           -2.102058
##########           Internal_energy_repulsive:           42.242050

@<TRIPOS>MOLECULE
ZINC000032503012
 53 54 1 0 0
SMALL
USER_CHARGES


@<TRIPOS>ATOM
      1 C1         -3.6030    3.2093   53.8687 C.3     1  ZINC000032503012   -0.1200
      2 C2         -4.4026    2.9724   55.1240 C.ar    1  ZINC000032503012   -0.0500
      3 C3         -3.7853    2.4584   56.2491 C.ar    1  ZINC000032503012   -0.1600
      4 C4         -4.5162    2.2399   57.4026 C.ar    1  ZINC000032503012   -0.0700
      5 C5         -5.8653    2.5347   57.4330 C.ar    1  ZINC000032503012   -0.1500
      6 C6         -6.4870    3.0506   56.3050 C.ar    1  ZINC000032503012    0.1300
      7 O7         -7.8142    3.3419   56.3325 O.3     1  ZINC000032503012   -0.2800
      8 C8         -8.5417    2.9441   57.4962 C.3     1  ZINC000032503012    0.0700
      9 H9         -7.9931    3.2456   58.3885 H       1  ZINC000032503012    0.1100
     10 C10        -9.9169    3.6147   57.4922 C.3     1  ZINC000032503012   -0.1800
     11 C11        -8.7131    1.4468   57.4939 C.2     1  ZINC000032503012    0.5200
     12 O12        -8.1865    0.7775   56.6305 O.2     1  ZINC000032503012   -0.4900
     13 N13        -9.4517    0.8516   58.4514 N.am    1  ZINC000032503012   -0.6700
     14 C14        -9.6109   -0.5386   58.4493 C.ar    1  ZINC000032503012    0.1300
     15 C15        -9.0441   -1.3052   59.4588 C.ar    1  ZINC000032503012   -0.0600
     16 C16        -9.2030   -2.6773   59.4540 C.ar    1  ZINC000032503012   -0.1200
     17 C17        -9.9250   -3.2876   58.4451 C.ar    1  ZINC000032503012   -0.0300
     18 C18       -10.4905   -2.5269   57.4379 C.ar    1  ZINC000032503012   -0.6600
     19 S19       -11.4097   -3.3094   56.1544 S.o2    1  ZINC000032503012    2.7000
     20 O20       -10.7828   -2.9450   54.9324 O.2     1  ZINC000032503012   -0.9600
     21 O21       -11.5967   -4.6584   56.5600 O.2     1  ZINC000032503012   -0.9500
     22 N22       -12.9127   -2.6146   56.1343 N.am    1  ZINC000032503012   -1.1100
     23 C23       -13.7673   -2.6829   57.3223 C.3     1  ZINC000032503012    0.1700
     24 C24       -13.3221   -1.6237   58.3326 C.3     1  ZINC000032503012   -0.1900
     25 C25       -15.2209   -2.4255   56.9204 C.3     1  ZINC000032503012   -0.1500
     26 C26       -13.6513   -4.0714   57.9546 C.3     1  ZINC000032503012   -0.1800
     27 C27       -10.3409   -1.1541   57.4406 C.ar    1  ZINC000032503012   -0.0400
     28 C28        -5.7505    3.2742   55.1510 C.ar    1  ZINC000032503012   -0.2100
     29 H29        -3.1908    4.2181   53.8855 H       1  ZINC000032503012    0.0700
     30 H30        -2.7899    2.4853   53.8137 H       1  ZINC000032503012    0.0700
     31 H31        -4.2501    3.0957   52.9990 H       1  ZINC000032503012    0.0700
     32 H32        -2.7307    2.2269   56.2272 H       1  ZINC000032503012    0.1300
     33 H33        -4.0319    1.8379   58.2802 H       1  ZINC000032503012    0.1300
     34 H34        -6.4357    2.3635   58.3339 H       1  ZINC000032503012    0.1300
     35 H35        -9.7929    4.6977   57.4939 H       1  ZINC000032503012    0.0800
     36 H36       -10.4655    3.3132   56.5999 H       1  ZINC000032503012    0.0800
     37 H37       -10.4718    3.3112   58.3799 H       1  ZINC000032503012    0.0800
     38 H38        -9.8730    1.3869   59.1420 H       1  ZINC000032503012    0.4100
     39 H39        -8.4793   -0.8292   60.2468 H       1  ZINC000032503012    0.1400
     40 H40        -8.7625   -3.2742   60.2389 H       1  ZINC000032503012    0.1400
     41 H41       -10.0475   -4.3606   58.4434 H       1  ZINC000032503012    0.1500
     42 H42       -13.2273   -2.1621   55.3361 H       1  ZINC000032503012    0.4200
     43 H43       -13.2336   -0.6592   57.8325 H       1  ZINC000032503012    0.0700
     44 H44       -14.0591   -1.5520   59.1324 H       1  ZINC000032503012    0.0800
     45 H45       -12.3564   -1.9052   58.7524 H       1  ZINC000032503012    0.0700
     46 H46       -15.5381   -3.1801   56.2008 H       1  ZINC000032503012    0.0700
     47 H47       -15.8567   -2.4764   57.8043 H       1  ZINC000032503012    0.0700
     48 H48       -15.3035   -1.4363   56.4700 H       1  ZINC000032503012    0.0600
     49 H49       -12.6703   -4.1791   58.4175 H       1  ZINC000032503012    0.0900
     50 H50       -14.4257   -4.1914   58.7123 H       1  ZINC000032503012    0.0700
     51 H51       -13.7753   -4.8328   57.1846 H       1  ZINC000032503012    0.0600
     52 H52       -10.7826   -0.5606   56.6538 H       1  ZINC000032503012    0.1400
     53 H53        -6.2323    3.6757   54.2717 H       1  ZINC000032503012    0.1300
@<TRIPOS>BOND
     1     1     2    1
     2     1    29    1
     3     1    30    1
     4     1    31    1
     5     2    28   ar
     6     2     3   ar
     7     3     4   ar
     8     3    32    1
     9     4     5   ar
    10     4    33    1
    11     5     6   ar
    12     5    34    1
    13     6     7    1
    14     6    28   ar
    15     7     8    1
    16     8     9    1
    17     8    10    1
    18     8    11    1
    19    10    35    1
    20    10    36    1
    21    10    37    1
    22    11    12    2
    23    11    13   am
    24    13    14    1
    25    13    38    1
    26    14    27   ar
    27    14    15   ar
    28    15    16   ar
    29    15    39    1
    30    16    17   ar
    31    16    40    1
    32    17    18   ar
    33    17    41    1
    34    18    19    1
    35    18    27   ar
    36    19    20    2
    37    19    21    2
    38    19    22   am
    39    22    23    1
    40    22    42    1
    41    23    24    1
    42    23    25    1
    43    23    26    1
    44    24    43    1
    45    24    44    1
    46    24    45    1
    47    25    46    1
    48    25    47    1
    49    25    48    1
    50    26    49    1
    51    26    50    1
    52    26    51    1
    53    27    52    1
    54    28    53    1
@<TRIPOS>SUBSTRUCTURE
     1 ZINC000032503012        1 TEMP              0 ****  ****    0 ROOT


##########                                Name:    ZINC000966038509
##########                DOCK_Rotatable_Bonds:                   5
##########                         Heavy_Atoms:                  25
##########                    Molecular_Weight:             346.445
##########                DOCK_Rotatable_Bonds:                   5
##########                       Formal_Charge:           0.0299998
##########                     HBond_Acceptors:                   5
##########                        HBond_Donors:                   1
##########                         Heavy_Atoms:                  25
##########                          Grid_Score:          -32.317532
##########                     Grid_vdw_energy:          -32.117561
##########                      Grid_es_energy:           -0.199969
##########           Internal_energy_repulsive:           18.779390

@<TRIPOS>MOLECULE
ZINC000966038509
 52 54 1 0 0
SMALL
USER_CHARGES


@<TRIPOS>ATOM
      1 C1        -11.9398   -4.1859   57.3419 C.3     1  ZINC000966038509   -0.1200
      2 C2        -10.8809   -3.3562   58.0213 C.ar    1  ZINC000966038509   -0.0100
      3 C3        -10.1934   -3.8648   59.1022 C.ar    1  ZINC000966038509   -0.1600
      4 C4         -9.2193   -3.1023   59.7286 C.ar    1  ZINC000966038509    0.1300
      5 F5         -8.5486   -3.6054   60.7879 F       1  ZINC000966038509   -0.1300
      6 C6         -8.9307   -1.8256   59.2713 C.ar    1  ZINC000966038509   -0.1600
      7 C7         -9.6123   -1.3073   58.1911 C.ar    1  ZINC000966038509   -0.0100
      8 C8         -9.2979    0.0808   57.6956 C.3     1  ZINC000966038509   -0.1200
      9 C9        -10.5906   -2.0729   57.5533 C.ar    1  ZINC000966038509   -0.1500
     10 C10       -11.3243   -1.5227   56.3953 C.2     1  ZINC000966038509    0.5700
     11 O11       -12.2522   -0.7571   56.5714 O.2     1  ZINC000966038509   -0.5200
     12 N12       -10.9651   -1.8693   55.1432 N.am    1  ZINC000966038509   -0.7100
     13 C13       -11.6916   -1.3222   53.9948 C.3     1  ZINC000966038509    0.1300
     14 H14       -12.7034   -1.0316   54.2776 H       1  ZINC000966038509    0.1200
     15 C15       -10.9255   -0.1296   53.3699 C.3     1  ZINC000966038509    0.0900
     16 N16        -9.8961   -0.7486   52.5151 N.am    1  ZINC000966038509   -0.6200
     17 C17        -8.7356   -0.1738   52.1417 C.2     1  ZINC000966038509    0.5400
     18 O18        -7.9593   -0.7792   51.4335 O.2     1  ZINC000966038509   -0.5300
     19 C19        -8.4028    1.2213   52.6043 C.3     1  ZINC000966038509   -0.1100
     20 C20        -7.1672    1.7642   51.8441 C.3     1  ZINC000966038509   -0.1100
     21 C21        -7.3404    3.2988   51.9619 C.3     1  ZINC000966038509   -0.1200
     22 C22        -8.8609    3.5197   51.8224 C.3     1  ZINC000966038509   -0.1200
     23 C23        -9.5363    2.1988   52.2308 C.3     1  ZINC000966038509   -0.1100
     24 C24       -10.3448   -2.0969   52.1380 C.3     1  ZINC000966038509    0.1000
     25 C25       -11.7117   -2.3322   52.8170 C.3     1  ZINC000966038509   -0.1100
     26 H26       -12.5275   -2.1074   52.1299 H       1  ZINC000966038509    0.1000
     27 C27       -11.8203   -3.7689   53.3318 C.3     1  ZINC000966038509   -0.1400
     28 H28       -11.4841   -4.7767   56.5473 H       1  ZINC000966038509    0.0800
     29 H29       -12.4025   -4.8518   58.0703 H       1  ZINC000966038509    0.0800
     30 H30       -12.6987   -3.5291   56.9167 H       1  ZINC000966038509    0.0700
     31 H31       -10.4140   -4.8588   59.4623 H       1  ZINC000966038509    0.1400
     32 H32        -8.1708   -1.2360   59.7625 H       1  ZINC000966038509    0.1400
     33 H33        -8.5119    0.0283   56.9423 H       1  ZINC000966038509    0.0800
     34 H34       -10.1931    0.5213   57.2566 H       1  ZINC000966038509    0.0700
     35 H35        -8.9614    0.6968   58.5295 H       1  ZINC000966038509    0.0800
     36 H36       -10.2256   -2.4810   55.0027 H       1  ZINC000966038509    0.4000
     37 H37       -11.5995    0.4818   52.7700 H       1  ZINC000966038509    0.0800
     38 H38       -10.4591    0.4722   54.1500 H       1  ZINC000966038509    0.0800
     39 H39        -8.2271    1.2339   53.6800 H       1  ZINC000966038509    0.0900
     40 H40        -6.2445    1.4414   52.3263 H       1  ZINC000966038509    0.0700
     41 H41        -7.1882    1.4520   50.8000 H       1  ZINC000966038509    0.0700
     42 H42        -6.9918    3.6486   52.9336 H       1  ZINC000966038509    0.0700
     43 H43        -6.8060    3.8059   51.1586 H       1  ZINC000966038509    0.0700
     44 H44        -9.1836    4.3240   52.4835 H       1  ZINC000966038509    0.0700
     45 H45        -9.1097    3.7624   50.7893 H       1  ZINC000966038509    0.0700
     46 H46       -10.1128    1.8004   51.3959 H       1  ZINC000966038509    0.0800
     47 H47       -10.1867    2.3621   53.0901 H       1  ZINC000966038509    0.0700
     48 H48       -10.4527   -2.1624   51.0554 H       1  ZINC000966038509    0.0800
     49 H49        -9.6255   -2.8379   52.4865 H       1  ZINC000966038509    0.0700
     50 H50       -11.0140   -3.9632   54.0391 H       1  ZINC000966038509    0.0600
     51 H51       -12.7806   -3.9049   53.8292 H       1  ZINC000966038509    0.0700
     52 H52       -11.7436   -4.4618   52.4939 H       1  ZINC000966038509    0.0700
@<TRIPOS>BOND
     1     1     2    1
     2     1    28    1
     3     1    29    1
     4     1    30    1
     5     2     9   ar
     6     2     3   ar
     7     3     4   ar
     8     3    31    1
     9     4     5    1
    10     4     6   ar
    11     6     7   ar
    12     6    32    1
    13     7     8    1
    14     7     9   ar
    15     8    33    1
    16     8    34    1
    17     8    35    1
    18     9    10    1
    19    10    11    2
    20    10    12   am
    21    12    13    1
    22    12    36    1
    23    13    14    1
    24    13    25    1
    25    13    15    1
    26    15    16    1
    27    15    37    1
    28    15    38    1
    29    16    17   am
    30    16    24    1
    31    17    18    2
    32    17    19    1
    33    19    23    1
    34    19    20    1
    35    19    39    1
    36    20    21    1
    37    20    40    1
    38    20    41    1
    39    21    22    1
    40    21    42    1
    41    21    43    1
    42    22    23    1
    43    22    44    1
    44    22    45    1
    45    23    46    1
    46    23    47    1
    47    24    25    1
    48    24    48    1
    49    24    49    1
    50    25    26    1
    51    25    27    1
    52    27    50    1
    53    27    51    1
    54    27    52    1
@<TRIPOS>SUBSTRUCTURE
     1 ZINC000966038509        1 TEMP              0 ****  ****    0 ROOT


##########                                Name:    ZINC000098105561
##########                DOCK_Rotatable_Bonds:                   5
##########                         Heavy_Atoms:                  25
##########                    Molecular_Weight:             368.336
##########                DOCK_Rotatable_Bonds:                   5
##########                       Formal_Charge:         2.98023e-08
##########                     HBond_Acceptors:                   9
##########                        HBond_Donors:                   0
##########                         Heavy_Atoms:                  25
##########                          Grid_Score:          -32.312679
##########                     Grid_vdw_energy:          -31.439724
##########                      Grid_es_energy:           -0.872955
##########           Internal_energy_repulsive:            9.193640

@<TRIPOS>MOLECULE
ZINC000098105561
 36 38 1 0 0
SMALL
USER_CHARGES


@<TRIPOS>ATOM
      1 C1        -14.8530   -1.7236   59.4954 C.3     1  ZINC000098105561   -0.0800
      2 C2        -14.5022   -2.8637   58.5746 C.2     1  ZINC000098105561    0.0900
      3 C3        -14.8426   -4.1290   58.8308 C.2     1  ZINC000098105561   -0.2700
      4 S4        -14.2445   -5.1330   57.5124 S.3     1  ZINC000098105561    0.1600
      5 C5        -13.5933   -3.7523   56.7427 C.2     1  ZINC000098105561    0.2500
      6 N6        -12.9073   -3.7642   55.5362 N.am    1  ZINC000098105561   -0.5200
      7 C7        -13.6139   -4.0899   54.2950 C.3     1  ZINC000098105561    0.0500
      8 C8        -13.9735   -2.7978   53.5587 C.3     1  ZINC000098105561    0.4400
      9 F9        -14.9540   -3.0662   52.5974 F       1  ZINC000098105561   -0.1700
     10 F10       -14.4626   -1.8599   54.4743 F       1  ZINC000098105561   -0.1700
     11 F11       -12.8329   -2.2859   52.9310 F       1  ZINC000098105561   -0.1700
     12 C12       -11.5910   -3.4760   55.5066 C.2     1  ZINC000098105561    0.5800
     13 O13       -10.9904   -3.4863   54.4503 O.2     1  ZINC000098105561   -0.4100
     14 C14       -10.8765   -3.1467   56.7614 C.2     1  ZINC000098105561    0.0800
     15 C15       -10.5395   -4.1567   57.6010 C.2     1  ZINC000098105561   -0.2000
     16 C16        -9.8440   -3.8180   58.8542 C.2     1  ZINC000098105561    0.4200
     17 O17        -9.3124   -4.6673   59.5474 O.2     1  ZINC000098105561   -0.4300
     18 C18        -9.8291   -2.3873   59.2203 C.ar    1  ZINC000098105561   -0.2200
     19 C19        -9.4360   -1.9641   60.4881 C.ar    1  ZINC000098105561   -0.0300
     20 C20        -9.4437   -0.6190   60.7872 C.ar    1  ZINC000098105561   -0.1400
     21 C21        -9.8408    0.3065   59.8326 C.ar    1  ZINC000098105561   -0.0500
     22 C22       -10.2296   -0.0998   58.5743 C.ar    1  ZINC000098105561   -0.1400
     23 C23       -10.2263   -1.4520   58.2484 C.ar    1  ZINC000098105561    0.1400
     24 O24       -10.5856   -1.8638   57.0164 O.3     1  ZINC000098105561   -0.2300
     25 N25       -13.8386   -2.6917   57.4473 N.2     1  ZINC000098105561   -0.4600
     26 H26       -15.8244   -1.3160   59.2152 H       1  ZINC000098105561    0.0800
     27 H27       -14.8935   -2.0855   60.5228 H       1  ZINC000098105561    0.0800
     28 H28       -14.0951   -0.9445   59.4142 H       1  ZINC000098105561    0.0800
     29 H29       -15.3886   -4.4764   59.6954 H       1  ZINC000098105561    0.1900
     30 H30       -12.9722   -4.7024   53.6616 H       1  ZINC000098105561    0.1700
     31 H31       -14.5252   -4.6402   54.5292 H       1  ZINC000098105561    0.1400
     32 H32       -10.7751   -5.1821   57.3575 H       1  ZINC000098105561    0.1800
     33 H33        -9.1281   -2.6849   61.2312 H       1  ZINC000098105561    0.1400
     34 H34        -9.1398   -0.2839   61.7679 H       1  ZINC000098105561    0.1400
     35 H35        -9.8457    1.3581   60.0787 H       1  ZINC000098105561    0.1400
     36 H36       -10.5363    0.6316   57.8413 H       1  ZINC000098105561    0.1400
@<TRIPOS>BOND
     1     1     2    1
     2     1    26    1
     3     1    27    1
     4     1    28    1
     5     2    25    1
     6     2     3    2
     7     3     4    1
     8     3    29    1
     9     4     5    1
    10     5     6    1
    11     5    25    2
    12     6     7    1
    13     6    12   am
    14     7     8    1
    15     7    30    1
    16     7    31    1
    17     8     9    1
    18     8    10    1
    19     8    11    1
    20    12    13    2
    21    12    14    1
    22    14    24    1
    23    14    15    2
    24    15    16    1
    25    15    32    1
    26    16    17    2
    27    16    18    1
    28    18    23   ar
    29    18    19   ar
    30    19    20   ar
    31    19    33    1
    32    20    21   ar
    33    20    34    1
    34    21    22   ar
    35    21    35    1
    36    22    23   ar
    37    22    36    1
    38    23    24    1
@<TRIPOS>SUBSTRUCTURE
     1 ZINC000098105561        1 TEMP              0 ****  ****    0 ROOT


##########                                Name:    ZINC001016082614
##########                DOCK_Rotatable_Bonds:                   6
##########                         Heavy_Atoms:                  25
##########                    Molecular_Weight:             348.402
##########                DOCK_Rotatable_Bonds:                   6
##########                       Formal_Charge:         -0.00999998
##########                     HBond_Acceptors:                   8
##########                        HBond_Donors:                   1
##########                         Heavy_Atoms:                  25
##########                          Grid_Score:          -32.312473
##########                     Grid_vdw_energy:          -31.353514
##########                      Grid_es_energy:           -0.958959
##########           Internal_energy_repulsive:           41.335236

@<TRIPOS>MOLECULE
ZINC001016082614
 49 51 1 0 0
SMALL
USER_CHARGES


@<TRIPOS>ATOM
      1 C1        -14.3186   -0.9133   60.1415 C.3     1  ZINC001016082614   -0.1700
      2 C2        -13.3498    0.2476   59.9076 C.3     1  ZINC001016082614    0.1000
      3 N3        -12.0893   -0.0203   60.6045 N.am    1  ZINC001016082614   -0.6100
      4 C4        -11.8367    0.5681   61.7906 C.2     1  ZINC001016082614    0.6100
      5 O5        -12.6555    1.3218   62.2825 O.2     1  ZINC001016082614   -0.5100
      6 C6        -10.5742    0.2997   62.4884 C.2     1  ZINC001016082614   -0.1100
      7 C7         -9.8299    1.1955   63.1970 C.2     1  ZINC001016082614    0.0600
      8 N8         -8.7615    0.5448   63.6688 N.2     1  ZINC001016082614   -0.4900
      9 C9         -8.8184   -0.7017   63.2830 C.2     1  ZINC001016082614    0.2000
     10 O10        -9.9263   -0.8865   62.5584 O.3     1  ZINC001016082614   -0.1900
     11 C11       -11.1033   -0.9277   60.0122 C.3     1  ZINC001016082614    0.1600
     12 H12       -10.1145   -0.6458   60.3737 H       1  ZINC001016082614    0.0800
     13 C13       -11.4056   -2.3465   60.4846 C.3     1  ZINC001016082614   -0.1300
     14 C14       -10.1368   -3.1626   60.4604 C.3     1  ZINC001016082614   -0.1300
     15 C15        -9.9954   -3.8805   59.1060 C.3     1  ZINC001016082614    0.1000
     16 N16       -10.3962   -3.0199   57.9756 N.am    1  ZINC001016082614   -0.6000
     17 C17       -11.1334   -3.5576   56.9839 C.2     1  ZINC001016082614    0.5000
     18 O18       -11.4541   -4.7263   57.0318 O.2     1  ZINC001016082614   -0.5200
     19 C19       -11.5594   -2.7067   55.8152 C.3     1  ZINC001016082614    0.1100
     20 H20       -11.4405   -1.6502   56.0555 H       1  ZINC001016082614    0.1100
     21 C21       -13.0276   -3.0082   55.4415 C.3     1  ZINC001016082614   -0.1200
     22 C22       -12.8590   -4.0826   54.3425 C.3     1  ZINC001016082614   -0.1600
     23 C23       -11.4773   -3.8267   53.7823 C.2     1  ZINC001016082614    0.5300
     24 O24       -11.0645   -4.2591   52.7270 O.2     1  ZINC001016082614   -0.5300
     25 N25       -10.7722   -3.0485   54.6246 N.am    1  ZINC001016082614   -0.7100
     26 C26       -10.0308   -1.6238   57.8889 C.3     1  ZINC001016082614    0.1300
     27 C27       -11.1321   -0.7594   58.5512 C.3     1  ZINC001016082614   -0.1600
     28 H28       -15.2564   -0.7140   59.6230 H       1  ZINC001016082614    0.0700
     29 H29       -13.8804   -1.8349   59.7584 H       1  ZINC001016082614    0.0500
     30 H30       -14.5090   -1.0181   61.2096 H       1  ZINC001016082614    0.0600
     31 H31       -13.1593    0.3524   58.8395 H       1  ZINC001016082614    0.0900
     32 H32       -13.7880    1.1692   60.2906 H       1  ZINC001016082614    0.0900
     33 H33       -10.0607    2.2396   63.3490 H       1  ZINC001016082614    0.2000
     34 H34        -8.0887   -1.4631   63.5161 H       1  ZINC001016082614    0.2600
     35 H35       -11.7987   -2.3155   61.5008 H       1  ZINC001016082614    0.0700
     36 H36       -12.1429   -2.8009   59.8228 H       1  ZINC001016082614    0.0800
     37 H37        -9.2810   -2.5048   60.6118 H       1  ZINC001016082614    0.0700
     38 H38       -10.1676   -3.9025   61.2602 H       1  ZINC001016082614    0.0800
     39 H39        -8.9563   -4.1807   58.9712 H       1  ZINC001016082614    0.0700
     40 H40       -10.6220   -4.7725   59.1111 H       1  ZINC001016082614    0.0800
     41 H41       -13.5737   -3.4068   56.2965 H       1  ZINC001016082614    0.1000
     42 H42       -13.5198   -2.1195   55.0461 H       1  ZINC001016082614    0.1000
     43 H43       -12.9167   -5.0819   54.7739 H       1  ZINC001016082614    0.1100
     44 H44       -13.6144   -3.9567   53.5668 H       1  ZINC001016082614    0.1100
     45 H45        -9.8623   -2.7528   54.4646 H       1  ZINC001016082614    0.4200
     46 H46        -9.0831   -1.4640   58.4032 H       1  ZINC001016082614    0.0800
     47 H47        -9.9271   -1.3402   56.8415 H       1  ZINC001016082614    0.0900
     48 H48       -12.1069   -1.0622   58.1691 H       1  ZINC001016082614    0.0900
     49 H49       -10.9623    0.2895   58.3085 H       1  ZINC001016082614    0.0700
@<TRIPOS>BOND
     1     1     2    1
     2     1    28    1
     3     1    29    1
     4     1    30    1
     5     2     3    1
     6     2    31    1
     7     2    32    1
     8     3     4   am
     9     3    11    1
    10     4     5    2
    11     4     6    1
    12     6    10    1
    13     6     7    2
    14     7     8    1
    15     7    33    1
    16     8     9    2
    17     9    10    1
    18     9    34    1
    19    11    12    1
    20    11    27    1
    21    11    13    1
    22    13    14    1
    23    13    35    1
    24    13    36    1
    25    14    15    1
    26    14    37    1
    27    14    38    1
    28    15    16    1
    29    15    39    1
    30    15    40    1
    31    16    17   am
    32    16    26    1
    33    17    18    2
    34    17    19    1
    35    19    20    1
    36    19    25    1
    37    19    21    1
    38    21    22    1
    39    21    41    1
    40    21    42    1
    41    22    23    1
    42    22    43    1
    43    22    44    1
    44    23    24    2
    45    23    25   am
    46    25    45    1
    47    26    27    1
    48    26    46    1
    49    26    47    1
    50    27    48    1
    51    27    49    1
@<TRIPOS>SUBSTRUCTURE
     1 ZINC001016082614        1 TEMP              0 ****  ****    0 ROOT


##########                                Name:    ZINC000174621331
##########                DOCK_Rotatable_Bonds:                   8
##########                         Heavy_Atoms:                  25
##########                    Molecular_Weight:             366.438
##########                DOCK_Rotatable_Bonds:                   8
##########                       Formal_Charge:        -5.96046e-08
##########                     HBond_Acceptors:                   8
##########                        HBond_Donors:                   3
##########                         Heavy_Atoms:                  25
##########                          Grid_Score:          -32.310242
##########                     Grid_vdw_energy:          -32.075008
##########                      Grid_es_energy:           -0.235231
##########           Internal_energy_repulsive:           13.831123

@<TRIPOS>MOLECULE
ZINC000174621331
 47 48 1 0 0
SMALL
USER_CHARGES


@<TRIPOS>ATOM
      1 C1         -9.1301   -4.2370   59.8615 C.3     1  ZINC000174621331    0.0300
      2 O2         -9.9176   -3.4560   60.7626 O.3     1  ZINC000174621331   -0.3800
      3 C3         -9.4638   -2.1095   60.9140 C.3     1  ZINC000174621331    0.0500
      4 C4        -10.4077   -1.1661   60.1657 C.3     1  ZINC000174621331    0.2400
      5 H5        -10.1180   -0.1332   60.3594 H       1  ZINC000174621331    0.1300
      6 N6        -10.3273   -1.4343   58.7276 N.am    1  ZINC000174621331   -0.7200
      7 C7        -10.5306   -0.4373   57.8439 C.2     1  ZINC000174621331    0.5600
      8 O8        -10.7820    0.6840   58.2398 O.2     1  ZINC000174621331   -0.5300
      9 C9        -10.4478   -0.7075   56.3927 C.ar    1  ZINC000174621331   -0.1600
     10 C10        -9.6567    0.0992   55.5736 C.ar    1  ZINC000174621331   -0.0200
     11 C11        -9.5834   -0.1586   54.2201 C.ar    1  ZINC000174621331   -0.1100
     12 C12        -8.7297    0.7114   53.3341 C.3     1  ZINC000174621331   -0.1200
     13 C13       -10.2916   -1.2145   53.6747 C.ar    1  ZINC000174621331    0.0400
     14 C14       -10.2064   -1.4906   52.1957 C.3     1  ZINC000174621331   -0.1600
     15 C15       -11.0775   -2.0186   54.4814 C.ar    1  ZINC000174621331   -0.6800
     16 S16       -11.9750   -3.3612   53.7767 S.o2    1  ZINC000174621331    2.7000
     17 N17       -12.7480   -4.1392   55.0175 N.am    1  ZINC000174621331   -1.2500
     18 O18       -12.9919   -2.7842   52.9693 O.2     1  ZINC000174621331   -0.9500
     19 O19       -11.0063   -4.2713   53.2739 O.2     1  ZINC000174621331   -0.9600
     20 C20       -11.1560   -1.7743   55.8367 C.ar    1  ZINC000174621331    0.0400
     21 C21       -11.8206   -1.3889   60.6400 C.2     1  ZINC000174621331   -0.0200
     22 C22       -12.7363   -2.1730   60.0432 C.2     1  ZINC000174621331   -0.1900
     23 C23       -13.9151   -2.0899   60.8193 C.2     1  ZINC000174621331   -0.2100
     24 C24       -13.6493   -1.2599   61.8440 C.2     1  ZINC000174621331    0.0000
     25 C25       -14.6130   -0.8699   62.9350 C.3     1  ZINC000174621331   -0.0800
     26 O26       -12.3774   -0.8430   61.7335 O.3     1  ZINC000174621331   -0.1600
     27 H27        -9.1476   -3.7786   58.8727 H       1  ZINC000174621331    0.0400
     28 H28        -8.1026   -4.2825   60.2226 H       1  ZINC000174621331    0.0400
     29 H29        -9.5392   -5.2456   59.8018 H       1  ZINC000174621331    0.0900
     30 H30        -9.4512   -1.8470   61.9718 H       1  ZINC000174621331    0.0700
     31 H31        -8.4578   -2.0169   60.5045 H       1  ZINC000174621331    0.0700
     32 H32       -10.1279   -2.3294   58.4116 H       1  ZINC000174621331    0.4100
     33 H33        -9.1034    0.9239   55.9981 H       1  ZINC000174621331    0.1400
     34 H34        -7.7219    0.2993   53.2824 H       1  ZINC000174621331    0.0800
     35 H35        -9.1605    0.7444   52.3333 H       1  ZINC000174621331    0.0800
     36 H36        -8.6891    1.7200   53.7456 H       1  ZINC000174621331    0.0700
     37 H37        -9.3837   -2.1788   52.0013 H       1  ZINC000174621331    0.1100
     38 H38       -11.1411   -1.9359   51.8547 H       1  ZINC000174621331    0.0700
     39 H39       -10.0327   -0.5567   51.6612 H       1  ZINC000174621331    0.0900
     40 H40       -13.3899   -3.6606   55.5649 H       1  ZINC000174621331    0.4200
     41 H41       -12.5587   -5.0734   55.1969 H       1  ZINC000174621331    0.4200
     42 H42       -11.7695   -2.4028   56.4652 H       1  ZINC000174621331    0.1600
     43 H43       -12.5977   -2.7541   59.1434 H       1  ZINC000174621331    0.1500
     44 H44       -14.8498   -2.5954   60.6262 H       1  ZINC000174621331    0.1500
     45 H45       -14.5292   -1.5742   63.7626 H       1  ZINC000174621331    0.0800
     46 H46       -14.3763    0.1341   63.2870 H       1  ZINC000174621331    0.0800
     47 H47       -15.6305   -0.8876   62.5445 H       1  ZINC000174621331    0.0900
@<TRIPOS>BOND
     1     1     2    1
     2     1    27    1
     3     1    28    1
     4     1    29    1
     5     2     3    1
     6     3     4    1
     7     3    30    1
     8     3    31    1
     9     4     5    1
    10     4     6    1
    11     4    21    1
    12     6     7   am
    13     6    32    1
    14     7     8    2
    15     7     9    1
    16     9    20   ar
    17     9    10   ar
    18    10    11   ar
    19    10    33    1
    20    11    12    1
    21    11    13   ar
    22    12    34    1
    23    12    35    1
    24    12    36    1
    25    13    14    1
    26    13    15   ar
    27    14    37    1
    28    14    38    1
    29    14    39    1
    30    15    16    1
    31    15    20   ar
    32    16    17   am
    33    16    18    2
    34    16    19    2
    35    17    40    1
    36    17    41    1
    37    20    42    1
    38    21    26    1
    39    21    22    2
    40    22    23    1
    41    22    43    1
    42    23    24    2
    43    23    44    1
    44    24    25    1
    45    24    26    1
    46    25    45    1
    47    25    46    1
    48    25    47    1
@<TRIPOS>SUBSTRUCTURE
     1 ZINC000174621331        1 TEMP              0 ****  ****    0 ROOT


##########                                Name:    ZINC001371344729
##########                DOCK_Rotatable_Bonds:                   9
##########                         Heavy_Atoms:                  24
##########                    Molecular_Weight:             332.399
##########                DOCK_Rotatable_Bonds:                   9
##########                       Formal_Charge:          0.00999983
##########                     HBond_Acceptors:                   6
##########                        HBond_Donors:                   1
##########                         Heavy_Atoms:                  24
##########                          Grid_Score:          -32.305984
##########                     Grid_vdw_energy:          -31.471729
##########                      Grid_es_energy:           -0.834255
##########           Internal_energy_repulsive:           25.638567

@<TRIPOS>MOLECULE
ZINC001371344729
 48 49 1 0 0
SMALL
USER_CHARGES


@<TRIPOS>ATOM
      1 C1        -11.6046    1.8281   52.0442 C.3     1  ZINC001371344729   -0.1800
      2 C2        -12.3841    0.9336   53.0100 C.3     1  ZINC001371344729    0.1000
      3 N3        -12.1733   -0.4714   52.6526 N.am    1  ZINC001371344729   -0.6100
      4 C4        -12.9942   -1.0724   51.7686 C.2     1  ZINC001371344729    0.5100
      5 O5        -12.8188   -2.2351   51.4715 O.2     1  ZINC001371344729   -0.5200
      6 C6        -14.1302   -0.2995   51.1492 C.3     1  ZINC001371344729   -0.0600
      7 C7        -14.4130   -0.8400   49.7712 C.2     1  ZINC001371344729   -0.0100
      8 C8        -14.6782   -0.1043   48.6768 C.2     1  ZINC001371344729   -0.1600
      9 C9        -14.7466    1.3993   48.6003 C.3     1  ZINC001371344729   -0.0800
     10 C10       -14.8865   -1.0124   47.6134 C.2     1  ZINC001371344729   -0.2100
     11 C11       -14.7268   -2.2484   48.1195 C.2     1  ZINC001371344729   -0.0300
     12 O12       -14.4437   -2.1380   49.4277 O.3     1  ZINC001371344729   -0.1700
     13 C13       -11.0701   -1.2232   53.2560 C.3     1  ZINC001371344729    0.1200
     14 H14       -10.6019   -0.6199   54.0336 H       1  ZINC001371344729    0.1100
     15 C15       -10.0356   -1.5617   52.1807 C.3     1  ZINC001371344729   -0.1600
     16 C16       -11.6099   -2.5166   53.8696 C.3     1  ZINC001371344729    0.1100
     17 N17       -10.9368   -2.7696   55.1460 N.am    1  ZINC001371344729   -0.7200
     18 C18       -11.4475   -3.6686   56.0106 C.2     1  ZINC001371344729    0.5900
     19 O19       -12.4665   -4.2706   55.7306 O.2     1  ZINC001371344729   -0.5300
     20 C20       -10.7714   -3.9218   57.2953 C.2     1  ZINC001371344729   -0.2300
     21 C21       -10.7041   -5.1039   57.9729 C.2     1  ZINC001371344729    0.0200
     22 O22        -9.9984   -4.9095   59.0912 O.3     1  ZINC001371344729   -0.1700
     23 C23        -9.5977   -3.6323   59.1887 C.2     1  ZINC001371344729   -0.0100
     24 C24        -8.7872   -3.0549   60.3204 C.3     1  ZINC001371344729   -0.0800
     25 C25       -10.0339   -2.9516   58.1178 C.2     1  ZINC001371344729   -0.1600
     26 H26       -11.9547    1.6557   51.0264 H       1  ZINC001371344729    0.0700
     27 H27       -11.7615    2.8735   52.3101 H       1  ZINC001371344729    0.0700
     28 H28       -10.5422    1.5925   52.1078 H       1  ZINC001371344729    0.0600
     29 H29       -13.4465    1.1692   52.9464 H       1  ZINC001371344729    0.0900
     30 H30       -12.0341    1.1061   54.0278 H       1  ZINC001371344729    0.0800
     31 H31       -13.8570    0.7532   51.0776 H       1  ZINC001371344729    0.1100
     32 H32       -15.0205   -0.4025   51.7696 H       1  ZINC001371344729    0.1200
     33 H33       -13.7599    1.7962   48.3619 H       1  ZINC001371344729    0.0700
     34 H34       -15.4532    1.6917   47.8236 H       1  ZINC001371344729    0.0700
     35 H35       -15.0762    1.7973   49.5601 H       1  ZINC001371344729    0.0600
     36 H36       -15.1253   -0.7617   46.5903 H       1  ZINC001371344729    0.1500
     37 H37       -14.8164   -3.1730   47.5685 H       1  ZINC001371344729    0.2000
     38 H38        -9.6510   -0.6401   51.7436 H       1  ZINC001371344729    0.0700
     39 H39        -9.2147   -2.1210   52.6296 H       1  ZINC001371344729    0.0700
     40 H40       -10.5039   -2.1649   51.4031 H       1  ZINC001371344729    0.0700
     41 H41       -12.6825   -2.4191   54.0375 H       1  ZINC001371344729    0.0800
     42 H42       -11.4228   -3.3473   53.1891 H       1  ZINC001371344729    0.0800
     43 H43       -10.1235   -2.2903   55.3688 H       1  ZINC001371344729    0.4000
     44 H44       -11.1444   -6.0385   57.6580 H       1  ZINC001371344729    0.2100
     45 H45        -9.4580   -2.6821   61.0945 H       1  ZINC001371344729    0.0800
     46 H46        -8.1442   -3.8291   60.7388 H       1  ZINC001371344729    0.0800
     47 H47        -8.1732   -2.2356   59.9464 H       1  ZINC001371344729    0.0900
     48 H48        -9.8754   -1.9050   57.9037 H       1  ZINC001371344729    0.1600
@<TRIPOS>BOND
     1     1     2    1
     2     1    26    1
     3     1    27    1
     4     1    28    1
     5     2     3    1
     6     2    29    1
     7     2    30    1
     8     3     4   am
     9     3    13    1
    10     4     5    2
    11     4     6    1
    12     6     7    1
    13     6    31    1
    14     6    32    1
    15     7    12    1
    16     7     8    2
    17     8     9    1
    18     8    10    1
    19     9    33    1
    20     9    34    1
    21     9    35    1
    22    10    11    2
    23    10    36    1
    24    11    12    1
    25    11    37    1
    26    13    14    1
    27    13    15    1
    28    13    16    1
    29    15    38    1
    30    15    39    1
    31    15    40    1
    32    16    17    1
    33    16    41    1
    34    16    42    1
    35    17    18   am
    36    17    43    1
    37    18    19    2
    38    18    20    1
    39    20    25    1
    40    20    21    2
    41    21    22    1
    42    21    44    1
    43    22    23    1
    44    23    24    1
    45    23    25    2
    46    24    45    1
    47    24    46    1
    48    24    47    1
    49    25    48    1
@<TRIPOS>SUBSTRUCTURE
     1 ZINC001371344729        1 TEMP              0 ****  ****    0 ROOT


##########                                Name:    ZINC000945148121
##########                DOCK_Rotatable_Bonds:                   6
##########                         Heavy_Atoms:                  24
##########                    Molecular_Weight:             332.446
##########                DOCK_Rotatable_Bonds:                   6
##########                       Formal_Charge:           0.0100009
##########                     HBond_Acceptors:                   6
##########                        HBond_Donors:                   2
##########                         Heavy_Atoms:                  24
##########                          Grid_Score:          -32.283951
##########                     Grid_vdw_energy:          -31.769197
##########                      Grid_es_energy:           -0.514754
##########           Internal_energy_repulsive:           19.663185

@<TRIPOS>MOLECULE
ZINC000945148121
 52 54 1 0 0
SMALL
USER_CHARGES


@<TRIPOS>ATOM
      1 O1         -9.5041    3.4210   52.4526 O.2     1  ZINC000945148121   -0.5100
      2 C2         -8.4573    2.8089   52.4695 C.2     1  ZINC000945148121    0.5200
      3 C3         -7.3585    3.1684   51.5028 C.3     1  ZINC000945148121   -0.0500
      4 C4         -6.5608    1.9346   51.1675 C.2     1  ZINC000945148121    0.0100
      5 C5         -5.2193    1.8601   51.0763 C.2     1  ZINC000945148121   -0.0500
      6 N6         -4.9155    0.5649   50.7543 N.pl3   1  ZINC000945148121   -0.5700
      7 C7         -6.0828   -0.1076   50.6600 C.2     1  ZINC000945148121    0.1800
      8 N8         -7.0623    0.7169   50.9133 N.2     1  ZINC000945148121   -0.4700
      9 N9         -8.2745    1.8107   53.3565 N.am    1  ZINC000945148121   -0.7300
     10 C10        -9.3426    1.4611   54.2962 C.3     1  ZINC000945148121    0.1500
     11 C11       -10.1458    0.2832   53.7398 C.3     1  ZINC000945148121   -0.1400
     12 C12       -11.2828   -0.0572   54.7084 C.3     1  ZINC000945148121    0.1100
     13 N13       -10.7135   -0.2915   56.0424 N.am    1  ZINC000945148121   -0.6100
     14 C14       -10.9776   -1.4314   56.7112 C.2     1  ZINC000945148121    0.5200
     15 O15       -11.6901   -2.2763   56.2119 O.2     1  ZINC000945148121   -0.5400
     16 C16       -10.3875   -1.6561   58.0796 C.3     1  ZINC000945148121   -0.1000
     17 C17       -11.1453   -0.8460   59.0962 C.3     1  ZINC000945148121   -0.1200
     18 C18       -10.2420   -0.3350   60.2348 C.3     1  ZINC000945148121   -0.1200
     19 C19        -9.2344   -1.3948   60.7195 C.3     1  ZINC000945148121   -0.1200
     20 C20        -9.8472   -2.7647   60.8284 C.3     1  ZINC000945148121   -0.1200
     21 C21        -9.5803   -3.5267   59.5142 C.3     1  ZINC000945148121   -0.1200
     22 C22       -10.5044   -3.1475   58.4556 C.3     1  ZINC000945148121   -0.1000
     23 C23        -9.8503    0.7403   56.6334 C.3     1  ZINC000945148121    0.1100
     24 C24        -8.7294    1.0717   55.6432 C.3     1  ZINC000945148121   -0.1400
     25 H25        -7.7955    3.5772   50.5916 H       1  ZINC000945148121    0.1000
     26 H26        -6.7038    3.9121   51.9571 H       1  ZINC000945148121    0.1000
     27 H27        -4.5180    2.6674   51.2276 H       1  ZINC000945148121    0.1800
     28 H28        -4.0276    0.1985   50.6193 H       1  ZINC000945148121    0.4200
     29 H29        -6.1881   -1.1551   50.4191 H       1  ZINC000945148121    0.2100
     30 H30        -7.4357    1.3237   53.3725 H       1  ZINC000945148121    0.4000
     31 H31       -10.0021    2.3183   54.4316 H       1  ZINC000945148121    0.0900
     32 H32       -10.5629    0.5532   52.7697 H       1  ZINC000945148121    0.0800
     33 H33        -9.4925   -0.5820   53.6275 H       1  ZINC000945148121    0.0700
     34 H34       -11.9866    0.7741   54.7523 H       1  ZINC000945148121    0.0700
     35 H35       -11.7967   -0.9560   54.3674 H       1  ZINC000945148121    0.1000
     36 H36        -9.3385   -1.3598   58.0791 H       1  ZINC000945148121    0.1000
     37 H37       -11.6013    0.0090   58.5969 H       1  ZINC000945148121    0.0700
     38 H38       -11.9346   -1.4648   59.5230 H       1  ZINC000945148121    0.0700
     39 H39        -9.6921    0.5378   59.8826 H       1  ZINC000945148121    0.0600
     40 H40       -10.8697   -0.0368   61.0746 H       1  ZINC000945148121    0.0700
     41 H41        -8.4011   -1.4360   60.0180 H       1  ZINC000945148121    0.0600
     42 H42        -8.8549   -1.0994   61.6977 H       1  ZINC000945148121    0.0600
     43 H43        -9.3954   -3.3027   61.6618 H       1  ZINC000945148121    0.0600
     44 H44       -10.9217   -2.6736   60.9872 H       1  ZINC000945148121    0.0700
     45 H45        -8.5622   -3.3179   59.1857 H       1  ZINC000945148121    0.0600
     46 H46        -9.6768   -4.5963   59.7005 H       1  ZINC000945148121    0.0600
     47 H47       -11.5229   -3.3491   58.7871 H       1  ZINC000945148121    0.0700
     48 H48       -10.2964   -3.7516   57.5724 H       1  ZINC000945148121    0.0700
     49 H49       -10.4372    1.6366   56.8343 H       1  ZINC000945148121    0.0700
     50 H50        -9.4189    0.3676   57.5624 H       1  ZINC000945148121    0.1000
     51 H51        -8.0893    0.1991   55.5129 H       1  ZINC000945148121    0.0700
     52 H52        -8.1383    1.9029   56.0277 H       1  ZINC000945148121    0.0800
@<TRIPOS>BOND
     1     1     2    2
     2     2     3    1
     3     2     9   am
     4     3     4    1
     5     3    25    1
     6     3    26    1
     7     4     8    1
     8     4     5    2
     9     5     6    1
    10     5    27    1
    11     6     7    1
    12     6    28    1
    13     7     8    2
    14     7    29    1
    15     9    10    1
    16     9    30    1
    17    10    24    1
    18    10    11    1
    19    10    31    1
    20    11    12    1
    21    11    32    1
    22    11    33    1
    23    12    13    1
    24    12    34    1
    25    12    35    1
    26    13    14   am
    27    13    23    1
    28    14    15    2
    29    14    16    1
    30    16    22    1
    31    16    17    1
    32    16    36    1
    33    17    18    1
    34    17    37    1
    35    17    38    1
    36    18    19    1
    37    18    39    1
    38    18    40    1
    39    19    20    1
    40    19    41    1
    41    19    42    1
    42    20    21    1
    43    20    43    1
    44    20    44    1
    45    21    22    1
    46    21    45    1
    47    21    46    1
    48    22    47    1
    49    22    48    1
    50    23    24    1
    51    23    49    1
    52    23    50    1
    53    24    51    1
    54    24    52    1
@<TRIPOS>SUBSTRUCTURE
     1 ZINC000945148121        1 TEMP              0 ****  ****    0 ROOT


##########                                Name:    ZINC000478980774
##########                DOCK_Rotatable_Bonds:                   4
##########                         Heavy_Atoms:                  26
##########                    Molecular_Weight:             401.818
##########                DOCK_Rotatable_Bonds:                   4
##########                       Formal_Charge:          -0.0100001
##########                     HBond_Acceptors:                   9
##########                        HBond_Donors:                   1
##########                         Heavy_Atoms:                  26
##########                          Grid_Score:          -32.256332
##########                     Grid_vdw_energy:          -30.897470
##########                      Grid_es_energy:           -1.358863
##########           Internal_energy_repulsive:            6.514179

@<TRIPOS>MOLECULE
ZINC000478980774
 40 42 1 0 0
SMALL
USER_CHARGES


@<TRIPOS>ATOM
      1 C1         -8.7554   -3.0230   59.6460 C.3     1  ZINC000478980774   -0.1400
      2 C2        -10.1806   -2.9163   60.1920 C.3     1  ZINC000478980774   -0.4600
      3 H3        -10.4674   -3.8643   60.6471 H       1  ZINC000478980774    0.1500
      4 C4        -10.2414   -1.8233   61.2276 C.2     1  ZINC000478980774    0.5400
      5 O5        -11.3030   -1.3031   61.4990 O.2     1  ZINC000478980774   -0.5000
      6 N6         -9.1160   -1.4235   61.8524 N.am    1  ZINC000478980774   -0.6600
      7 C7         -9.1724   -0.4074   62.8152 C.ar    1  ZINC000478980774    0.1600
      8 C8         -9.5776    0.8699   62.4534 C.ar    1  ZINC000478980774   -0.1200
      9 C9         -9.6332    1.8736   63.4021 C.ar    1  ZINC000478980774   -0.0600
     10 C10        -9.2851    1.6080   64.7162 C.ar    1  ZINC000478980774    0.0100
     11 O11        -9.2539    2.4081   65.8228 O.3     1  ZINC000478980774   -0.2900
     12 C12        -9.2182    1.5085   66.9464 C.3     1  ZINC000478980774    0.5700
     13 F13        -8.4503    2.0481   67.9840 F       1  ZINC000478980774   -0.1100
     14 F14       -10.5141    1.2262   67.3915 F       1  ZINC000478980774   -0.1500
     15 O15        -8.5927    0.3245   66.4173 O.3     1  ZINC000478980774   -0.2800
     16 C16        -8.8783    0.3266   65.0824 C.ar    1  ZINC000478980774    0.0500
     17 C17        -8.8284   -0.6794   64.1327 C.ar    1  ZINC000478980774   -0.0900
     18 S18       -11.3204   -2.5276   58.8352 S.o     1  ZINC000478980774    1.3000
     19 O19       -10.9661   -1.2762   58.2628 O.2     1  ZINC000478980774   -0.7800
     20 C20       -10.9977   -3.8527   57.6391 C.3     1  ZINC000478980774   -0.4300
     21 C21       -11.8828   -3.6676   56.4335 C.ar    1  ZINC000478980774   -0.0600
     22 C22       -11.4222   -2.9590   55.3402 C.ar    1  ZINC000478980774   -0.1100
     23 C23       -12.2341   -2.7890   54.2340 C.ar    1  ZINC000478980774   -0.1100
     24 C24       -13.5072   -3.3272   54.2214 C.ar    1  ZINC000478980774   -0.1100
     25 C25       -13.9691   -4.0361   55.3145 C.ar    1  ZINC000478980774   -0.1100
     26 C26       -13.1550   -4.2118   56.4189 C.ar    1  ZINC000478980774   -0.0300
     27 Cl27      -13.7344   -5.1020   57.7921 Cl      1  ZINC000478980774   -0.0600
     28 H28        -8.7115   -3.8135   58.8969 H       1  ZINC000478980774    0.0800
     29 H29        -8.4687   -2.0749   59.1910 H       1  ZINC000478980774    0.0700
     30 H30        -8.0705   -3.2564   60.4612 H       1  ZINC000478980774    0.0700
     31 H31        -8.2670   -1.8393   61.6353 H       1  ZINC000478980774    0.4200
     32 H32        -9.8492    1.0798   61.4294 H       1  ZINC000478980774    0.1500
     33 H33        -9.9485    2.8667   63.1182 H       1  ZINC000478980774    0.1500
     34 H34        -8.5181   -1.6744   64.4155 H       1  ZINC000478980774    0.1600
     35 H35        -9.9526   -3.8178   57.3313 H       1  ZINC000478980774    0.1100
     36 H36       -11.2087   -4.8176   58.1000 H       1  ZINC000478980774    0.1300
     37 H37       -10.4278   -2.5377   55.3498 H       1  ZINC000478980774    0.1400
     38 H38       -11.8737   -2.2352   53.3798 H       1  ZINC000478980774    0.1300
     39 H39       -14.1413   -3.1934   53.3574 H       1  ZINC000478980774    0.1300
     40 H40       -14.9639   -4.4566   55.3044 H       1  ZINC000478980774    0.1300
@<TRIPOS>BOND
     1     1     2    1
     2     1    28    1
     3     1    29    1
     4     1    30    1
     5     2     3    1
     6     2     4    1
     7     2    18    1
     8     4     5    2
     9     4     6   am
    10     6     7    1
    11     6    31    1
    12     7    17   ar
    13     7     8   ar
    14     8     9   ar
    15     8    32    1
    16     9    10   ar
    17     9    33    1
    18    10    16   ar
    19    10    11    1
    20    11    12    1
    21    12    13    1
    22    12    14    1
    23    12    15    1
    24    15    16    1
    25    16    17   ar
    26    17    34    1
    27    18    19    2
    28    18    20    1
    29    20    21    1
    30    20    35    1
    31    20    36    1
    32    21    26   ar
    33    21    22   ar
    34    22    23   ar
    35    22    37    1
    36    23    24   ar
    37    23    38    1
    38    24    25   ar
    39    24    39    1
    40    25    26   ar
    41    25    40    1
    42    26    27    1
@<TRIPOS>SUBSTRUCTURE
     1 ZINC000478980774        1 TEMP              0 ****  ****    0 ROOT


##########                                Name:    ZINC000163855860
##########                DOCK_Rotatable_Bonds:                   6
##########                         Heavy_Atoms:                  28
##########                    Molecular_Weight:             398.483
##########                DOCK_Rotatable_Bonds:                   6
##########                       Formal_Charge:          -0.0100004
##########                     HBond_Acceptors:                   7
##########                        HBond_Donors:                   1
##########                         Heavy_Atoms:                  28
##########                          Grid_Score:          -32.255569
##########                     Grid_vdw_energy:          -32.471001
##########                      Grid_es_energy:            0.215433
##########           Internal_energy_repulsive:           15.080080

@<TRIPOS>MOLECULE
ZINC000163855860
 50 53 1 0 0
SMALL
USER_CHARGES


@<TRIPOS>ATOM
      1 C1        -13.5702   -2.4108   58.5809 C.3     1  ZINC000163855860   -0.1300
      2 C2        -12.2522   -3.1109   58.7903 C.ar    1  ZINC000163855860   -0.0600
      3 C3        -11.4096   -2.7142   59.8168 C.ar    1  ZINC000163855860    0.1400
      4 N4        -11.7826   -1.6623   60.6613 N.am    1  ZINC000163855860   -0.6700
      5 C5        -10.9914   -0.5772   60.7760 C.2     1  ZINC000163855860    0.5100
      6 O6         -9.9562   -0.5123   60.1473 O.2     1  ZINC000163855860   -0.5100
      7 C7        -11.3930    0.5554   61.6852 C.3     1  ZINC000163855860   -0.1300
      8 C8        -10.7874    0.3348   63.0728 C.3     1  ZINC000163855860   -0.1100
      9 H9        -11.0748   -0.6375   63.4730 H       1  ZINC000163855860    0.1100
     10 C10        -9.2491    0.4803   63.0315 C.3     1  ZINC000163855860    0.0600
     11 O11        -8.9064    1.0857   64.3132 O.3     1  ZINC000163855860   -0.3500
     12 C12        -9.9107    1.8697   64.7308 C.2     1  ZINC000163855860    0.4800
     13 O13        -9.8057    2.7617   65.5389 O.2     1  ZINC000163855860   -0.4500
     14 C14       -11.1954    1.4698   64.0382 C.3     1  ZINC000163855860   -0.1800
     15 C15       -10.1969   -3.3649   60.0113 C.ar    1  ZINC000163855860   -0.1100
     16 C16        -9.8244   -4.4049   59.1807 C.ar    1  ZINC000163855860   -0.1100
     17 C17       -10.6542   -4.8043   58.1525 C.ar    1  ZINC000163855860   -0.1000
     18 C18       -11.8739   -4.1570   57.9487 C.ar    1  ZINC000163855860   -0.1100
     19 C19       -12.7650   -4.5832   56.8484 C.2     1  ZINC000163855860    0.5700
     20 O20       -13.7196   -5.2986   57.0820 O.2     1  ZINC000163855860   -0.5300
     21 N21       -12.5189   -4.1786   55.5867 N.am    1  ZINC000163855860   -0.6100
     22 C22       -13.3926   -4.5909   54.4779 C.3     1  ZINC000163855860    0.1200
     23 C23       -14.0805   -3.3380   53.9136 C.3     1  ZINC000163855860   -0.0600
     24 C24       -13.0501   -2.2414   53.7467 C.2     1  ZINC000163855860   -0.1700
     25 C25       -11.8457   -2.2127   54.3480 C.2     1  ZINC000163855860   -0.1300
     26 C26       -11.0890   -1.0876   54.0363 C.2     1  ZINC000163855860   -0.1200
     27 C27       -11.6581   -0.2250   53.2003 C.2     1  ZINC000163855860   -0.2100
     28 S28       -13.2503   -0.8109   52.7427 S.3     1  ZINC000163855860    0.1100
     29 C29       -11.3668   -3.3185   55.2817 C.3     1  ZINC000163855860    0.1700
     30 H30       -13.4514   -1.6298   57.8297 H       1  ZINC000163855860    0.0700
     31 H31       -14.3143   -3.1313   58.2414 H       1  ZINC000163855860    0.0900
     32 H32       -13.8980   -1.9649   59.5199 H       1  ZINC000163855860    0.0700
     33 H33       -12.6106   -1.7141   61.1640 H       1  ZINC000163855860    0.4100
     34 H34       -12.4797    0.5899   61.7644 H       1  ZINC000163855860    0.1100
     35 H35       -11.0286    1.4973   61.2753 H       1  ZINC000163855860    0.1100
     36 H36        -8.9502    1.1321   62.2106 H       1  ZINC000163855860    0.0800
     37 H37        -8.7767   -0.4972   62.9340 H       1  ZINC000163855860    0.1200
     38 H38       -11.9213    1.1065   64.7657 H       1  ZINC000163855860    0.1200
     39 H39       -11.6045    2.3128   63.4814 H       1  ZINC000163855860    0.1200
     40 H40        -9.5436   -3.0570   60.8142 H       1  ZINC000163855860    0.1500
     41 H41        -8.8811   -4.9069   59.3368 H       1  ZINC000163855860    0.1300
     42 H42       -10.3596   -5.6174   57.5056 H       1  ZINC000163855860    0.1300
     43 H43       -12.7960   -5.0658   53.6990 H       1  ZINC000163855860    0.0800
     44 H44       -14.1441   -5.2903   54.8446 H       1  ZINC000163855860    0.1000
     45 H45       -14.8582   -3.0058   54.6014 H       1  ZINC000163855860    0.0900
     46 H46       -14.5249   -3.5709   52.9459 H       1  ZINC000163855860    0.0900
     47 H47       -10.1034   -0.9254   54.4471 H       1  ZINC000163855860    0.1400
     48 H48       -11.2103    0.6950   52.8547 H       1  ZINC000163855860    0.1700
     49 H49       -10.9780   -2.8821   56.2018 H       1  ZINC000163855860    0.1000
     50 H50       -10.5880   -3.9040   54.7931 H       1  ZINC000163855860    0.0900
@<TRIPOS>BOND
     1     1     2    1
     2     1    30    1
     3     1    31    1
     4     1    32    1
     5     2    18   ar
     6     2     3   ar
     7     3     4    1
     8     3    15   ar
     9     4     5   am
    10     4    33    1
    11     5     6    2
    12     5     7    1
    13     7     8    1
    14     7    34    1
    15     7    35    1
    16     8     9    1
    17     8    14    1
    18     8    10    1
    19    10    11    1
    20    10    36    1
    21    10    37    1
    22    11    12    1
    23    12    13    2
    24    12    14    1
    25    14    38    1
    26    14    39    1
    27    15    16   ar
    28    15    40    1
    29    16    17   ar
    30    16    41    1
    31    17    18   ar
    32    17    42    1
    33    18    19    1
    34    19    20    2
    35    19    21   am
    36    21    29    1
    37    21    22    1
    38    22    23    1
    39    22    43    1
    40    22    44    1
    41    23    24    1
    42    23    45    1
    43    23    46    1
    44    24    28    1
    45    24    25    2
    46    25    26    1
    47    25    29    1
    48    26    27    2
    49    26    47    1
    50    27    28    1
    51    27    48    1
    52    29    49    1
    53    29    50    1
@<TRIPOS>SUBSTRUCTURE
     1 ZINC000163855860        1 TEMP              0 ****  ****    0 ROOT


##########                                Name:    ZINC001011676549
##########                DOCK_Rotatable_Bonds:                   6
##########                         Heavy_Atoms:                  24
##########                    Molecular_Weight:             330.387
##########                DOCK_Rotatable_Bonds:                   6
##########                       Formal_Charge:        -1.49012e-07
##########                     HBond_Acceptors:                   7
##########                        HBond_Donors:                   1
##########                         Heavy_Atoms:                  24
##########                          Grid_Score:          -32.232788
##########                     Grid_vdw_energy:          -31.277405
##########                      Grid_es_energy:           -0.955384
##########           Internal_energy_repulsive:           19.902037

@<TRIPOS>MOLECULE
ZINC001011676549
 46 48 1 0 0
SMALL
USER_CHARGES


@<TRIPOS>ATOM
      1 C1        -11.8936   -2.0541   58.5174 C.3     1  ZINC001011676549   -0.1700
      2 C2        -10.4030   -2.3446   58.3318 C.3     1  ZINC001011676549    0.1300
      3 H3        -10.0811   -2.0136   57.3444 H       1  ZINC001011676549    0.0900
      4 C4         -9.5869   -1.6171   59.4210 C.3     1  ZINC001011676549    0.1400
      5 H5         -8.6341   -1.2697   59.0215 H       1  ZINC001011676549    0.1100
      6 N6        -10.3505   -0.4991   59.9808 N.am    1  ZINC001011676549   -0.7200
      7 C7        -10.1632    0.7489   59.5075 C.2     1  ZINC001011676549    0.5200
      8 O8         -9.3615    0.9466   58.6192 O.2     1  ZINC001011676549   -0.5300
      9 C9        -10.9500    1.8985   60.0821 C.3     1  ZINC001011676549   -0.0900
     10 C10       -11.1698    1.6701   61.5555 C.ar    1  ZINC001011676549   -0.1800
     11 C11       -10.1141    1.3279   62.3858 C.ar    1  ZINC001011676549    0.1600
     12 N12       -10.3451    1.1351   63.6744 N.ar    1  ZINC001011676549   -0.5200
     13 C13       -11.5597    1.2647   64.1694 C.ar    1  ZINC001011676549    0.3000
     14 N14       -12.5871    1.5887   63.4104 N.ar    1  ZINC001011676549   -0.5200
     15 C15       -12.4314    1.8026   62.1138 C.ar    1  ZINC001011676549    0.1600
     16 C16        -9.3651   -2.7233   60.4861 C.3     1  ZINC001011676549   -0.1400
     17 C17        -9.2027   -3.9820   59.5979 C.3     1  ZINC001011676549    0.1000
     18 N18       -10.1517   -3.7852   58.4828 N.am    1  ZINC001011676549   -0.6100
     19 C19       -10.6971   -4.7638   57.7336 C.2     1  ZINC001011676549    0.5800
     20 O20       -10.4162   -5.9265   57.9537 O.2     1  ZINC001011676549   -0.5300
     21 C21       -11.6320   -4.4256   56.6493 C.2     1  ZINC001011676549   -0.1400
     22 C22       -11.1970   -3.6998   55.6352 C.2     1  ZINC001011676549   -0.1500
     23 C23       -12.0819   -3.2992   54.4886 C.3     1  ZINC001011676549    0.0900
     24 O24       -13.2698   -4.0934   54.4845 O.3     1  ZINC001011676549   -0.3800
     25 C25       -13.9268   -4.1286   55.7572 C.3     1  ZINC001011676549    0.0600
     26 C26       -13.0492   -4.9233   56.7306 C.3     1  ZINC001011676549   -0.1100
     27 H27       -12.2112   -2.3986   59.5016 H       1  ZINC001011676549    0.0600
     28 H28       -12.0678   -0.9813   58.4344 H       1  ZINC001011676549    0.0700
     29 H29       -12.4638   -2.5753   57.7485 H       1  ZINC001011676549    0.0800
     30 H30       -10.9908   -0.6571   60.6920 H       1  ZINC001011676549    0.4100
     31 H31       -10.3964    2.8262   59.9370 H       1  ZINC001011676549    0.1100
     32 H32       -11.9136    1.9676   59.5775 H       1  ZINC001011676549    0.1100
     33 H33        -9.1165    1.2198   61.9864 H       1  ZINC001011676549    0.1700
     34 H34       -11.7171    1.1006   65.2253 H       1  ZINC001011676549    0.2000
     35 H35       -13.2775    2.0684   61.4974 H       1  ZINC001011676549    0.1700
     36 H36        -8.4606   -2.5336   61.0639 H       1  ZINC001011676549    0.0900
     37 H37       -10.2323   -2.8157   61.1398 H       1  ZINC001011676549    0.0800
     38 H38        -8.1829   -4.0499   59.2187 H       1  ZINC001011676549    0.0800
     39 H39        -9.4593   -4.8794   60.1610 H       1  ZINC001011676549    0.0800
     40 H40       -10.1650   -3.3815   55.6300 H       1  ZINC001011676549    0.1200
     41 H41       -12.3505   -2.2477   54.5895 H       1  ZINC001011676549    0.0700
     42 H42       -11.5463   -3.4452   53.5505 H       1  ZINC001011676549    0.1100
     43 H43       -14.0633   -3.1125   56.1273 H       1  ZINC001011676549    0.0600
     44 H44       -14.8955   -4.6180   55.6559 H       1  ZINC001011676549    0.1000
     45 H45       -13.0843   -5.9812   56.4703 H       1  ZINC001011676549    0.0900
     46 H46       -13.4192   -4.7873   57.7469 H       1  ZINC001011676549    0.0900
@<TRIPOS>BOND
     1     1     2    1
     2     1    27    1
     3     1    28    1
     4     1    29    1
     5     2     3    1
     6     2    18    1
     7     2     4    1
     8     4     5    1
     9     4     6    1
    10     4    16    1
    11     6     7   am
    12     6    30    1
    13     7     8    2
    14     7     9    1
    15     9    10    1
    16     9    31    1
    17     9    32    1
    18    10    15   ar
    19    10    11   ar
    20    11    12   ar
    21    11    33    1
    22    12    13   ar
    23    13    14   ar
    24    13    34    1
    25    14    15   ar
    26    15    35    1
    27    16    17    1
    28    16    36    1
    29    16    37    1
    30    17    18    1
    31    17    38    1
    32    17    39    1
    33    18    19   am
    34    19    20    2
    35    19    21    1
    36    21    26    1
    37    21    22    2
    38    22    23    1
    39    22    40    1
    40    23    24    1
    41    23    41    1
    42    23    42    1
    43    24    25    1
    44    25    26    1
    45    25    43    1
    46    25    44    1
    47    26    45    1
    48    26    46    1
@<TRIPOS>SUBSTRUCTURE
     1 ZINC001011676549        1 TEMP              0 ****  ****    0 ROOT


##########                                Name:    ZINC000347662449
##########                DOCK_Rotatable_Bonds:                   5
##########                         Heavy_Atoms:                  23
##########                    Molecular_Weight:              327.45
##########                DOCK_Rotatable_Bonds:                   5
##########                       Formal_Charge:                0.03
##########                     HBond_Acceptors:                   5
##########                        HBond_Donors:                   0
##########                         Heavy_Atoms:                  23
##########                          Grid_Score:          -32.229378
##########                     Grid_vdw_energy:          -31.545076
##########                      Grid_es_energy:           -0.684300
##########           Internal_energy_repulsive:            8.357649

@<TRIPOS>MOLECULE
ZINC000347662449
 44 46 1 0 0
SMALL
USER_CHARGES


@<TRIPOS>ATOM
      1 C1         -0.2082   -1.5344   40.9470 C.2     1  ZINC000347662449   -0.1800
      2 C2         -0.3277   -0.6398   41.8965 C.2     1  ZINC000347662449   -0.1700
      3 C3         -1.3895   -0.8004   42.9537 C.3     1  ZINC000347662449    0.1600
      4 N4         -0.9411   -0.1671   44.1963 N.am    1  ZINC000347662449   -0.6200
      5 C5          0.0608    0.9031   44.2656 C.3     1  ZINC000347662449    0.1100
      6 C6         -0.1099    1.5376   45.6638 C.3     1  ZINC000347662449   -0.1100
      7 C7         -0.7231    0.3679   46.4679 C.3     1  ZINC000347662449   -0.1200
      8 H8          0.0582   -0.1946   46.9792 H       1  ZINC000347662449    0.1400
      9 S9         -1.9386    0.9861   47.6582 S.3     1  ZINC000347662449    0.0300
     10 C10        -0.8747    1.3751   49.0079 C.2     1  ZINC000347662449    0.1900
     11 N11         0.4320    1.2494   49.0171 N.2     1  ZINC000347662449   -0.4500
     12 C12         0.9086    1.6403   50.2111 C.2     1  ZINC000347662449   -0.0100
     13 C13        -0.1274    2.0236   50.9767 C.2     1  ZINC000347662449   -0.0400
     14 N14        -1.2679    1.8638   50.2189 N.pl3   1  ZINC000347662449   -0.4000
     15 C15        -2.5821    2.1426   50.6197 C.ar    1  ZINC000347662449    0.1100
     16 C16        -2.8713    3.3303   51.2774 C.ar    1  ZINC000347662449   -0.1100
     17 C17        -4.1673    3.6023   51.6712 C.ar    1  ZINC000347662449   -0.1000
     18 C18        -5.1756    2.6929   51.4108 C.ar    1  ZINC000347662449   -0.0800
     19 C19        -6.5884    2.9929   51.8412 C.3     1  ZINC000347662449   -0.1200
     20 C20        -4.8904    1.5088   50.7557 C.ar    1  ZINC000347662449   -0.0700
     21 C21        -5.9924    0.5202   50.4737 C.3     1  ZINC000347662449   -0.1200
     22 C22        -3.5979    1.2339   50.3545 C.ar    1  ZINC000347662449   -0.1100
     23 C23        -1.3986   -0.4876   45.4189 C.2     1  ZINC000347662449    0.5300
     24 O24        -2.2270   -1.3432   45.6483 O.2     1  ZINC000347662449   -0.4900
     25 H25        -0.8707   -2.3870   40.9219 H       1  ZINC000347662449    0.1000
     26 H26         0.5499   -1.4171   40.1868 H       1  ZINC000347662449    0.1000
     27 H27         0.3348    0.2127   41.9215 H       1  ZINC000347662449    0.1100
     28 H28        -2.3119   -0.3271   42.6171 H       1  ZINC000347662449    0.0900
     29 H29        -1.5688   -1.8608   43.1305 H       1  ZINC000347662449    0.0900
     30 H30         1.0634    0.4887   44.1593 H       1  ZINC000347662449    0.0800
     31 H31        -0.1257    1.6452   43.4893 H       1  ZINC000347662449    0.0900
     32 H32         0.8540    1.8329   46.0784 H       1  ZINC000347662449    0.1100
     33 H33        -0.7932    2.3859   45.6265 H       1  ZINC000347662449    0.0900
     34 H34         1.9476    1.6456   50.5056 H       1  ZINC000347662449    0.1800
     35 H35        -0.0759    2.3904   51.9912 H       1  ZINC000347662449    0.1800
     36 H36        -2.0841    4.0409   51.4814 H       1  ZINC000347662449    0.1300
     37 H37        -4.3928    4.5260   52.1832 H       1  ZINC000347662449    0.1300
     38 H38        -7.1072    3.5216   51.0416 H       1  ZINC000347662449    0.0800
     39 H39        -7.1084    2.0595   52.0568 H       1  ZINC000347662449    0.0700
     40 H40        -6.5712    3.6145   52.7364 H       1  ZINC000347662449    0.0700
     41 H41        -6.4367    0.7385   49.5026 H       1  ZINC000347662449    0.0800
     42 H42        -5.5817   -0.4895   50.4667 H       1  ZINC000347662449    0.0700
     43 H43        -6.7558    0.5965   51.2479 H       1  ZINC000347662449    0.0800
     44 H44        -3.3758    0.3092   49.8427 H       1  ZINC000347662449    0.1300
@<TRIPOS>BOND
     1     1     2    2
     2     1    25    1
     3     1    26    1
     4     2     3    1
     5     2    27    1
     6     3     4    1
     7     3    28    1
     8     3    29    1
     9     4    23   am
    10     4     5    1
    11     5     6    1
    12     5    30    1
    13     5    31    1
    14     6     7    1
    15     6    32    1
    16     6    33    1
    17     7     8    1
    18     7     9    1
    19     7    23    1
    20     9    10    1
    21    10    14    1
    22    10    11    2
    23    11    12    1
    24    12    13    2
    25    12    34    1
    26    13    14    1
    27    13    35    1
    28    14    15    1
    29    15    22   ar
    30    15    16   ar
    31    16    17   ar
    32    16    36    1
    33    17    18   ar
    34    17    37    1
    35    18    19    1
    36    18    20   ar
    37    19    38    1
    38    19    39    1
    39    19    40    1
    40    20    21    1
    41    20    22   ar
    42    21    41    1
    43    21    42    1
    44    21    43    1
    45    22    44    1
    46    23    24    2
@<TRIPOS>SUBSTRUCTURE
     1 ZINC000347662449        1 TEMP              0 ****  ****    0 ROOT


##########                                Name:    ZINC000643274279
##########                DOCK_Rotatable_Bonds:                   6
##########                         Heavy_Atoms:                  29
##########                    Molecular_Weight:             392.454
##########                DOCK_Rotatable_Bonds:                   6
##########                       Formal_Charge:         -0.00999939
##########                     HBond_Acceptors:                   6
##########                        HBond_Donors:                   2
##########                         Heavy_Atoms:                  29
##########                          Grid_Score:          -32.200562
##########                     Grid_vdw_energy:          -31.144754
##########                      Grid_es_energy:           -1.055807
##########           Internal_energy_repulsive:           10.465748

@<TRIPOS>MOLECULE
ZINC000643274279
 53 56 1 0 0
SMALL
USER_CHARGES


@<TRIPOS>ATOM
      1 O1        -14.0980   -1.5136   58.0514 O.2     1  ZINC000643274279   -0.4900
      2 C2        -14.0062   -2.6945   58.3165 C.2     1  ZINC000643274279    0.5100
      3 N3        -13.7517   -3.0835   59.5816 N.am    1  ZINC000643274279   -0.6400
      4 C4        -13.5877   -2.1268   60.5871 C.ar    1  ZINC000643274279    0.1300
      5 C5        -12.3175   -1.8485   61.0795 C.ar    1  ZINC000643274279   -0.1000
      6 C6        -12.1466   -0.9111   62.0836 C.ar    1  ZINC000643274279   -0.1000
      7 C7        -13.2402   -0.2514   62.5994 C.ar    1  ZINC000643274279   -0.0600
      8 C8        -13.0656    0.7258   63.7487 C.3     1  ZINC000643274279   -0.0900
      9 C9        -13.3668    2.1374   63.2582 C.3     1  ZINC000643274279   -0.1200
     10 C10       -14.8488    2.4619   63.3704 C.3     1  ZINC000643274279   -0.1100
     11 C11       -15.7165    1.7360   62.3736 C.3     1  ZINC000643274279   -0.1600
     12 C12       -15.6691    0.2424   62.6314 C.2     1  ZINC000643274279    0.4100
     13 O13       -16.5471   -0.3166   63.2534 O.2     1  ZINC000643274279   -0.4400
     14 C14       -14.5167   -0.5042   62.0974 C.ar    1  ZINC000643274279   -0.1300
     15 C15       -14.6921   -1.4525   61.0878 C.ar    1  ZINC000643274279   -0.1000
     16 C16       -14.1814   -3.7168   57.2418 C.2     1  ZINC000643274279    0.5200
     17 O17       -15.0842   -4.5246   57.3142 O.2     1  ZINC000643274279   -0.5000
     18 N18       -13.3370   -3.7422   56.1918 N.am    1  ZINC000643274279   -0.5800
     19 C19       -13.3942   -4.6922   55.0658 C.3     1  ZINC000643274279    0.0900
     20 C20       -12.6860   -3.9639   53.8963 C.3     1  ZINC000643274279   -0.1400
     21 C21       -11.5476   -3.2157   54.6389 C.3     1  ZINC000643274279   -0.1200
     22 C22       -12.2100   -2.8230   55.9762 C.3     1  ZINC000643274279    0.1800
     23 H23       -12.5683   -1.7949   55.9246 H       1  ZINC000643274279    0.0900
     24 C24       -11.2166   -2.9634   57.1007 C.ar    1  ZINC000643274279   -0.1000
     25 C25       -10.5704   -1.8453   57.5945 C.ar    1  ZINC000643274279   -0.0900
     26 C26        -9.6594   -1.9713   58.6253 C.ar    1  ZINC000643274279   -0.1400
     27 C27        -9.3935   -3.2212   59.1654 C.ar    1  ZINC000643274279    0.1100
     28 O28        -8.4981   -3.3478   60.1798 O.3     1  ZINC000643274279   -0.5000
     29 C29       -10.0436   -4.3415   58.6686 C.ar    1  ZINC000643274279   -0.1400
     30 C30       -10.9573   -4.2096   57.6410 C.ar    1  ZINC000643274279   -0.0900
     31 H31       -13.6822   -4.0273   59.7941 H       1  ZINC000643274279    0.4200
     32 H32       -11.4598   -2.3667   60.6768 H       1  ZINC000643274279    0.1400
     33 H33       -11.1580   -0.6977   62.4620 H       1  ZINC000643274279    0.1400
     34 H34       -13.7520    0.4664   64.5546 H       1  ZINC000643274279    0.0800
     35 H35       -12.0397    0.6785   64.1140 H       1  ZINC000643274279    0.0800
     36 H36       -12.7995    2.8509   63.8561 H       1  ZINC000643274279    0.0800
     37 H37       -13.0607    2.2252   62.2157 H       1  ZINC000643274279    0.0700
     38 H38       -15.1850    2.2047   64.3748 H       1  ZINC000643274279    0.0700
     39 H39       -14.9806    3.5346   63.2284 H       1  ZINC000643274279    0.0800
     40 H40       -16.7445    2.0864   62.4664 H       1  ZINC000643274279    0.0900
     41 H41       -15.3569    1.9403   61.3650 H       1  ZINC000643274279    0.0900
     42 H42       -15.6791   -1.6621   60.7027 H       1  ZINC000643274279    0.1300
     43 H43       -12.8643   -5.6108   55.3172 H       1  ZINC000643274279    0.0800
     44 H44       -14.4301   -4.9098   54.8055 H       1  ZINC000643274279    0.1000
     45 H45       -12.2813   -4.6782   53.1792 H       1  ZINC000643274279    0.0900
     46 H46       -13.3611   -3.2617   53.4072 H       1  ZINC000643274279    0.0800
     47 H47       -10.6965   -3.8759   54.8051 H       1  ZINC000643274279    0.0800
     48 H48       -11.2452   -2.3267   54.0853 H       1  ZINC000643274279    0.0900
     49 H49       -10.7777   -0.8725   57.1737 H       1  ZINC000643274279    0.1200
     50 H50        -9.1543   -1.0977   59.0101 H       1  ZINC000643274279    0.1300
     51 H51        -8.0075   -2.5376   60.3749 H       1  ZINC000643274279    0.3900
     52 H52        -9.8380   -5.3157   59.0872 H       1  ZINC000643274279    0.1300
     53 H53       -11.4638   -5.0813   57.2541 H       1  ZINC000643274279    0.1300
@<TRIPOS>BOND
     1     1     2    2
     2     2     3   am
     3     2    16    1
     4     3     4    1
     5     3    31    1
     6     4    15   ar
     7     4     5   ar
     8     5     6   ar
     9     5    32    1
    10     6     7   ar
    11     6    33    1
    12     7    14   ar
    13     7     8    1
    14     8     9    1
    15     8    34    1
    16     8    35    1
    17     9    10    1
    18     9    36    1
    19     9    37    1
    20    10    11    1
    21    10    38    1
    22    10    39    1
    23    11    12    1
    24    11    40    1
    25    11    41    1
    26    12    13    2
    27    12    14    1
    28    14    15   ar
    29    15    42    1
    30    16    17    2
    31    16    18   am
    32    18    22    1
    33    18    19    1
    34    19    20    1
    35    19    43    1
    36    19    44    1
    37    20    21    1
    38    20    45    1
    39    20    46    1
    40    21    22    1
    41    21    47    1
    42    21    48    1
    43    22    23    1
    44    22    24    1
    45    24    30   ar
    46    24    25   ar
    47    25    26   ar
    48    25    49    1
    49    26    27   ar
    50    26    50    1
    51    27    28    1
    52    27    29   ar
    53    28    51    1
    54    29    30   ar
    55    29    52    1
    56    30    53    1
@<TRIPOS>SUBSTRUCTURE
     1 ZINC000643274279        1 TEMP              0 ****  ****    0 ROOT


##########                                Name:    ZINC000460163972
##########                DOCK_Rotatable_Bonds:                   7
##########                         Heavy_Atoms:                  28
##########                    Molecular_Weight:             408.469
##########                DOCK_Rotatable_Bonds:                   7
##########                       Formal_Charge:          -0.0100001
##########                     HBond_Acceptors:                   8
##########                        HBond_Donors:                   2
##########                         Heavy_Atoms:                  28
##########                          Grid_Score:          -32.160095
##########                     Grid_vdw_energy:          -31.004860
##########                      Grid_es_energy:           -1.155237
##########           Internal_energy_repulsive:           53.628479

@<TRIPOS>MOLECULE
ZINC000460163972
 50 52 1 0 0
SMALL
USER_CHARGES


@<TRIPOS>ATOM
      1 C1         -9.9288   -0.8520   52.4837 C.3     1  ZINC000460163972   -0.1400
      2 C2        -10.1996   -0.9376   53.9637 C.ar    1  ZINC000460163972    0.0100
      3 C3         -9.6641    0.0078   54.8187 C.ar    1  ZINC000460163972   -0.1300
      4 C4         -9.9104   -0.0678   56.1759 C.ar    1  ZINC000460163972   -0.0600
      5 C5        -10.6969   -1.0945   56.6810 C.ar    1  ZINC000460163972    0.1100
      6 N6        -10.9487   -1.1737   58.0551 N.am    1  ZINC000460163972   -0.6700
      7 C7        -10.2135   -1.9970   58.8285 C.2     1  ZINC000460163972    0.5200
      8 O8         -9.3336   -2.6692   58.3334 O.2     1  ZINC000460163972   -0.5100
      9 C9        -10.4845   -2.0824   60.3085 C.3     1  ZINC000460163972   -0.0700
     10 H10       -10.3731   -3.1149   60.6393 H       1  ZINC000460163972    0.1200
     11 C11        -9.4904   -1.1956   61.0610 C.3     1  ZINC000460163972   -0.1500
     12 C12       -11.8888   -1.6136   60.5898 C.ar    1  ZINC000460163972   -0.0600
     13 C13       -12.0993   -0.4968   61.3764 C.ar    1  ZINC000460163972   -0.0700
     14 C14       -13.3868   -0.0649   61.6360 C.ar    1  ZINC000460163972   -0.1200
     15 C15       -14.4663   -0.7505   61.1076 C.ar    1  ZINC000460163972    0.0700
     16 F16       -15.7247   -0.3288   61.3604 F       1  ZINC000460163972   -0.1300
     17 C17       -14.2551   -1.8709   60.3179 C.ar    1  ZINC000460163972    0.0700
     18 F18       -15.3075   -2.5420   59.8009 F       1  ZINC000460163972   -0.1300
     19 C19       -12.9652   -2.2978   60.0561 C.ar    1  ZINC000460163972   -0.1200
     20 C20       -11.2337   -2.0425   55.8193 C.ar    1  ZINC000460163972    0.0000
     21 C21       -12.0883   -3.1582   56.3633 C.3     1  ZINC000460163972   -0.1500
     22 C22       -10.9876   -1.9585   54.4631 C.ar    1  ZINC000460163972   -0.6700
     23 S23       -11.6686   -3.1602   53.3692 S.o2    1  ZINC000460163972    2.7000
     24 O24       -10.5967   -4.0142   52.9936 O.2     1  ZINC000460163972   -0.9500
     25 O25       -12.8600   -3.6323   53.9830 O.2     1  ZINC000460163972   -0.9500
     26 N26       -12.1350   -2.3631   51.9945 N.am    1  ZINC000460163972   -1.0900
     27 C27       -13.1349   -1.2951   52.0707 C.3     1  ZINC000460163972    0.0800
     28 C28       -13.9015   -0.9527   50.7915 C.3     1  ZINC000460163972   -0.1800
     29 C29       -14.6056   -1.6931   51.9303 C.3     1  ZINC000460163972   -0.1900
     30 H30       -10.7517   -0.3318   51.9933 H       1  ZINC000460163972    0.1000
     31 H31        -9.0011   -0.3050   52.3150 H       1  ZINC000460163972    0.0800
     32 H32        -9.8378   -1.8573   52.0723 H       1  ZINC000460163972    0.0700
     33 H33        -9.0524    0.8062   54.4252 H       1  ZINC000460163972    0.1400
     34 H34        -9.4913    0.6707   56.8433 H       1  ZINC000460163972    0.1600
     35 H35       -11.6523   -0.6362   58.4511 H       1  ZINC000460163972    0.4100
     36 H36        -9.6865   -1.2574   62.1314 H       1  ZINC000460163972    0.0800
     37 H37        -8.4747   -1.5347   60.8575 H       1  ZINC000460163972    0.0700
     38 H38        -9.6019   -0.1630   60.7302 H       1  ZINC000460163972    0.0700
     39 H39       -11.2572    0.0387   61.7892 H       1  ZINC000460163972    0.1400
     40 H40       -13.5499    0.8075   62.2514 H       1  ZINC000460163972    0.1500
     41 H41       -12.7994   -3.1700   59.4410 H       1  ZINC000460163972    0.1500
     42 H42       -13.1405   -2.8916   56.2635 H       1  ZINC000460163972    0.1000
     43 H43       -11.8905   -4.0729   55.8044 H       1  ZINC000460163972    0.1000
     44 H44       -11.8520   -3.3170   57.4155 H       1  ZINC000460163972    0.0700
     45 H45       -11.7461   -2.6034   51.1390 H       1  ZINC000460163972    0.4200
     46 H46       -12.8977   -0.4765   52.7500 H       1  ZINC000460163972    0.1300
     47 H47       -14.1686    0.0915   50.6291 H       1  ZINC000460163972    0.1100
     48 H48       -13.6618   -1.5220   49.8934 H       1  ZINC000460163972    0.1000
     49 H49       -14.8291   -2.7495   51.7815 H       1  ZINC000460163972    0.1000
     50 H50       -15.3359   -1.1360   52.5172 H       1  ZINC000460163972    0.1000
@<TRIPOS>BOND
     1     1     2    1
     2     1    30    1
     3     1    31    1
     4     1    32    1
     5     2    22   ar
     6     2     3   ar
     7     3     4   ar
     8     3    33    1
     9     4     5   ar
    10     4    34    1
    11     5     6    1
    12     5    20   ar
    13     6     7   am
    14     6    35    1
    15     7     8    2
    16     7     9    1
    17     9    10    1
    18     9    11    1
    19     9    12    1
    20    11    36    1
    21    11    37    1
    22    11    38    1
    23    12    19   ar
    24    12    13   ar
    25    13    14   ar
    26    13    39    1
    27    14    15   ar
    28    14    40    1
    29    15    16    1
    30    15    17   ar
    31    17    18    1
    32    17    19   ar
    33    19    41    1
    34    20    21    1
    35    20    22   ar
    36    21    42    1
    37    21    43    1
    38    21    44    1
    39    22    23    1
    40    23    24    2
    41    23    25    2
    42    23    26   am
    43    26    27    1
    44    26    45    1
    45    27    29    1
    46    27    28    1
    47    27    46    1
    48    28    29    1
    49    28    47    1
    50    28    48    1
    51    29    49    1
    52    29    50    1
@<TRIPOS>SUBSTRUCTURE
     1 ZINC000460163972        1 TEMP              0 ****  ****    0 ROOT


##########                                Name:    ZINC000463741321
##########                DOCK_Rotatable_Bonds:                   7
##########                         Heavy_Atoms:                  26
##########                    Molecular_Weight:             354.467
##########                DOCK_Rotatable_Bonds:                   7
##########                       Formal_Charge:         -6.4075e-07
##########                     HBond_Acceptors:                   4
##########                        HBond_Donors:                   1
##########                         Heavy_Atoms:                  26
##########                          Grid_Score:          -32.149998
##########                     Grid_vdw_energy:          -31.923168
##########                      Grid_es_energy:           -0.226828
##########           Internal_energy_repulsive:           13.911929

@<TRIPOS>MOLECULE
ZINC000463741321
 53 55 1 0 0
SMALL
USER_CHARGES


@<TRIPOS>ATOM
      1 C1        -14.6419   -5.7864   57.1050 C.3     1  ZINC000463741321   -0.1500
      2 C2        -13.3784   -5.0746   56.6172 C.3     1  ZINC000463741321   -0.1100
      3 H3        -12.6395   -5.8151   56.3111 H       1  ZINC000463741321    0.1000
      4 C4        -13.7254   -4.1781   55.4270 C.3     1  ZINC000463741321   -0.0900
      5 C5        -12.6354   -4.3016   54.3604 C.3     1  ZINC000463741321   -0.0800
      6 C6        -12.8824   -3.2910   53.2703 C.ar    1  ZINC000463741321   -0.1200
      7 C7        -14.1632   -2.8306   53.0319 C.ar    1  ZINC000463741321   -0.0900
      8 C8        -14.3902   -1.9033   52.0317 C.ar    1  ZINC000463741321   -0.1300
      9 C9        -13.3364   -1.4362   51.2689 C.ar    1  ZINC000463741321   -0.1000
     10 C10       -12.0545   -1.8956   51.5052 C.ar    1  ZINC000463741321   -0.1500
     11 C11       -11.8250   -2.8190   52.5107 C.ar    1  ZINC000463741321    0.1000
     12 F12       -10.5724   -3.2688   52.7426 F       1  ZINC000463741321   -0.1400
     13 C13       -12.8137   -4.2328   57.7323 C.2     1  ZINC000463741321    0.5200
     14 O14       -13.5569   -3.7281   58.5472 O.2     1  ZINC000463741321   -0.5300
     15 N15       -11.4829   -4.0408   57.8243 N.am    1  ZINC000463741321   -0.7300
     16 C16       -10.9341   -3.2211   58.9074 C.3     1  ZINC000463741321    0.1500
     17 H17       -11.6407   -3.1936   59.7368 H       1  ZINC000463741321    0.1000
     18 C18        -9.6097   -3.8239   59.3841 C.3     1  ZINC000463741321   -0.1300
     19 C19        -9.0136   -2.9287   60.4739 C.3     1  ZINC000463741321   -0.1200
     20 C20        -8.8228   -1.5154   59.9187 C.3     1  ZINC000463741321    0.0600
     21 N21       -10.1181   -0.9828   59.4770 N.3     1  ZINC000463741321   -0.4800
     22 C22       -10.0029    0.3533   59.0865 C.ar    1  ZINC000463741321    0.1100
     23 C23        -9.2881    0.6851   57.9425 C.ar    1  ZINC000463741321   -0.1700
     24 C24        -9.1766    2.0070   57.5589 C.ar    1  ZINC000463741321   -0.0900
     25 C25        -9.7752    3.0000   58.3125 C.ar    1  ZINC000463741321   -0.1500
     26 C26       -10.4876    2.6733   59.4518 C.ar    1  ZINC000463741321   -0.0900
     27 C27       -10.6078    1.3528   59.8380 C.ar    1  ZINC000463741321   -0.1400
     28 C28       -10.6886   -1.7991   58.3978 C.3     1  ZINC000463741321    0.0500
     29 H29       -15.3808   -5.0459   57.4113 H       1  ZINC000463741321    0.0600
     30 H30       -15.0502   -6.3952   56.2985 H       1  ZINC000463741321    0.0700
     31 H31       -14.3946   -6.4251   57.9530 H       1  ZINC000463741321    0.0600
     32 H32       -14.6822   -4.4872   55.0060 H       1  ZINC000463741321    0.0700
     33 H33       -13.7926   -3.1422   55.7597 H       1  ZINC000463741321    0.0700
     34 H34       -11.6614   -4.1168   54.8134 H       1  ZINC000463741321    0.0800
     35 H35       -12.6542   -5.3055   53.9363 H       1  ZINC000463741321    0.0800
     36 H36       -14.9874   -3.1955   53.6268 H       1  ZINC000463741321    0.1300
     37 H37       -15.3917   -1.5441   51.8461 H       1  ZINC000463741321    0.1300
     38 H38       -13.5150   -0.7121   50.4875 H       1  ZINC000463741321    0.1300
     39 H39       -11.2314   -1.5309   50.9085 H       1  ZINC000463741321    0.1400
     40 H40       -10.8885   -4.4455   57.1733 H       1  ZINC000463741321    0.4000
     41 H41        -9.7876   -4.8205   59.7881 H       1  ZINC000463741321    0.0700
     42 H42        -8.9161   -3.8881   58.5457 H       1  ZINC000463741321    0.0600
     43 H43        -9.6898   -2.8959   61.3282 H       1  ZINC000463741321    0.0800
     44 H44        -8.0496   -3.3297   60.7873 H       1  ZINC000463741321    0.0800
     45 H45        -8.4118   -0.8721   60.6966 H       1  ZINC000463741321    0.0900
     46 H46        -8.1357   -1.5470   59.0731 H       1  ZINC000463741321    0.0500
     47 H47        -8.8197   -0.0900   57.3540 H       1  ZINC000463741321    0.1200
     48 H48        -8.6210    2.2656   56.6697 H       1  ZINC000463741321    0.1200
     49 H49        -9.6859    4.0332   58.0106 H       1  ZINC000463741321    0.1200
     50 H50       -10.9539    3.4514   60.0381 H       1  ZINC000463741321    0.1200
     51 H51       -11.1645    1.0982   60.7277 H       1  ZINC000463741321    0.1300
     52 H52        -9.9932   -1.8297   57.5591 H       1  ZINC000463741321    0.0500
     53 H53       -11.6321   -1.3614   58.0714 H       1  ZINC000463741321    0.0900
@<TRIPOS>BOND
     1     1     2    1
     2     1    29    1
     3     1    30    1
     4     1    31    1
     5     2     3    1
     6     2     4    1
     7     2    13    1
     8     4     5    1
     9     4    32    1
    10     4    33    1
    11     5     6    1
    12     5    34    1
    13     5    35    1
    14     6    11   ar
    15     6     7   ar
    16     7     8   ar
    17     7    36    1
    18     8     9   ar
    19     8    37    1
    20     9    10   ar
    21     9    38    1
    22    10    11   ar
    23    10    39    1
    24    11    12    1
    25    13    14    2
    26    13    15   am
    27    15    16    1
    28    15    40    1
    29    16    17    1
    30    16    28    1
    31    16    18    1
    32    18    19    1
    33    18    41    1
    34    18    42    1
    35    19    20    1
    36    19    43    1
    37    19    44    1
    38    20    21    1
    39    20    45    1
    40    20    46    1
    41    21    22    1
    42    21    28    1
    43    22    27   ar
    44    22    23   ar
    45    23    24   ar
    46    23    47    1
    47    24    25   ar
    48    24    48    1
    49    25    26   ar
    50    25    49    1
    51    26    27   ar
    52    26    50    1
    53    27    51    1
    54    28    52    1
    55    28    53    1
@<TRIPOS>SUBSTRUCTURE
     1 ZINC000463741321        1 TEMP              0 ****  ****    0 ROOT


##########                                Name:    ZINC001356153960
##########                DOCK_Rotatable_Bonds:                   8
##########                         Heavy_Atoms:                  24
##########                    Molecular_Weight:             334.366
##########                DOCK_Rotatable_Bonds:                   8
##########                       Formal_Charge:           0.0100003
##########                     HBond_Acceptors:                   6
##########                        HBond_Donors:                   1
##########                         Heavy_Atoms:                  24
##########                          Grid_Score:          -32.102238
##########                     Grid_vdw_energy:          -31.523746
##########                      Grid_es_energy:           -0.578493
##########           Internal_energy_repulsive:           19.189844

@<TRIPOS>MOLECULE
ZINC001356153960
 44 46 1 0 0
SMALL
USER_CHARGES


@<TRIPOS>ATOM
      1 O1        -10.6305   -1.9175   51.3491 O.2     1  ZINC001356153960   -0.5200
      2 C2        -10.8062   -1.9058   52.5498 C.2     1  ZINC001356153960    0.5100
      3 N3        -10.4720   -0.8160   53.2691 N.am    1  ZINC001356153960   -0.7000
      4 C4         -9.9024    0.3565   52.6006 C.3     1  ZINC001356153960    0.1300
      5 C5         -8.3772    0.2381   52.5748 C.3     1  ZINC001356153960   -0.0800
      6 H6         -7.9871    0.1455   53.5884 H       1  ZINC001356153960    0.0900
      7 C7         -7.9553   -0.9472   51.7379 C.2     1  ZINC001356153960   -0.1700
      8 C8         -6.9671   -0.6345   50.9447 C.2     1  ZINC001356153960   -0.1600
      9 C9         -6.5651    0.8115   51.1203 C.3     1  ZINC001356153960   -0.1000
     10 C10        -7.7536    1.4638   51.8677 C.3     1  ZINC001356153960   -0.1200
     11 C11       -11.3872   -3.1018   53.2318 C.2     1  ZINC001356153960    0.5100
     12 O12       -10.6967   -4.0784   53.4370 O.2     1  ZINC001356153960   -0.5100
     13 N13       -12.6782   -3.0959   53.6189 N.am    1  ZINC001356153960   -0.5500
     14 C14       -13.2479   -4.2684   54.2875 C.3     1  ZINC001356153960    0.1300
     15 C15       -13.6137   -3.9102   55.7047 C.ar    1  ZINC001356153960   -0.1600
     16 C16       -14.9250   -3.6160   56.0263 C.ar    1  ZINC001356153960   -0.0300
     17 C17       -15.2630   -3.2928   57.3271 C.ar    1  ZINC001356153960   -0.1700
     18 C18       -14.2859   -3.2523   58.3071 C.ar    1  ZINC001356153960    0.1400
     19 F19       -14.6155   -2.9314   59.5774 F       1  ZINC001356153960   -0.1300
     20 C20       -12.9707   -3.5413   57.9850 C.ar    1  ZINC001356153960   -0.2000
     21 C21       -12.6345   -3.8704   56.6834 C.ar    1  ZINC001356153960    0.1500
     22 F22       -11.3516   -4.1522   56.3676 F       1  ZINC001356153960   -0.1200
     23 C23       -13.5118   -1.9169   53.3713 C.3     1  ZINC001356153960    0.0700
     24 C24       -14.9185   -2.1502   52.8165 C.3     1  ZINC001356153960   -0.1900
     25 C25       -13.8268   -1.5674   51.9154 C.3     1  ZINC001356153960   -0.1800
     26 H26       -10.6087   -0.8081   54.2293 H       1  ZINC001356153960    0.4100
     27 H27       -10.2799    0.4117   51.5795 H       1  ZINC001356153960    0.0800
     28 H28       -10.1878    1.2582   53.1426 H       1  ZINC001356153960    0.0800
     29 H29        -8.4119   -1.9245   51.7892 H       1  ZINC001356153960    0.1200
     30 H30        -6.4984   -1.3191   50.2534 H       1  ZINC001356153960    0.1300
     31 H31        -5.6569    0.8831   51.7188 H       1  ZINC001356153960    0.0800
     32 H32        -6.4176    1.2852   50.1497 H       1  ZINC001356153960    0.0700
     33 H33        -8.4581    1.9114   51.1665 H       1  ZINC001356153960    0.0800
     34 H34        -7.4058    2.1992   52.5932 H       1  ZINC001356153960    0.0800
     35 H35       -14.1403   -4.5935   53.7529 H       1  ZINC001356153960    0.0900
     36 H36       -12.5144   -5.0747   54.2943 H       1  ZINC001356153960    0.1400
     37 H37       -15.6871   -3.6426   55.2616 H       1  ZINC001356153960    0.1600
     38 H38       -16.2888   -3.0670   57.5781 H       1  ZINC001356153960    0.1400
     39 H39       -12.2078   -3.5098   58.7487 H       1  ZINC001356153960    0.1500
     40 H40       -13.3768   -1.0906   54.0693 H       1  ZINC001356153960    0.1400
     41 H41       -15.2237   -3.1809   52.6357 H       1  ZINC001356153960    0.1400
     42 H42       -15.7087   -1.4772   53.1492 H       1  ZINC001356153960    0.0900
     43 H43       -13.8993   -0.5113   51.6558 H       1  ZINC001356153960    0.1000
     44 H44       -13.4137   -2.2148   51.1418 H       1  ZINC001356153960    0.0900
@<TRIPOS>BOND
     1     1     2    2
     2     2     3   am
     3     2    11    1
     4     3     4    1
     5     3    26    1
     6     4     5    1
     7     4    27    1
     8     4    28    1
     9     5     6    1
    10     5    10    1
    11     5     7    1
    12     7     8    2
    13     7    29    1
    14     8     9    1
    15     8    30    1
    16     9    10    1
    17     9    31    1
    18     9    32    1
    19    10    33    1
    20    10    34    1
    21    11    12    2
    22    11    13   am
    23    13    14    1
    24    13    23    1
    25    14    15    1
    26    14    35    1
    27    14    36    1
    28    15    21   ar
    29    15    16   ar
    30    16    17   ar
    31    16    37    1
    32    17    18   ar
    33    17    38    1
    34    18    19    1
    35    18    20   ar
    36    20    21   ar
    37    20    39    1
    38    21    22    1
    39    23    25    1
    40    23    24    1
    41    23    40    1
    42    24    25    1
    43    24    41    1
    44    24    42    1
    45    25    43    1
    46    25    44    1
@<TRIPOS>SUBSTRUCTURE
     1 ZINC001356153960        1 TEMP              0 ****  ****    0 ROOT


##########                                Name:    ZINC000518234532
##########                DOCK_Rotatable_Bonds:                   5
##########                         Heavy_Atoms:                  25
##########                    Molecular_Weight:             408.267
##########                DOCK_Rotatable_Bonds:                   5
##########                       Formal_Charge:         -0.00999981
##########                     HBond_Acceptors:                   5
##########                        HBond_Donors:                   1
##########                         Heavy_Atoms:                  25
##########                          Grid_Score:          -32.096283
##########                     Grid_vdw_energy:          -31.200726
##########                      Grid_es_energy:           -0.895556
##########           Internal_energy_repulsive:           22.810696

@<TRIPOS>MOLECULE
ZINC000518234532
 44 46 1 0 0
SMALL
USER_CHARGES


@<TRIPOS>ATOM
      1 C1        -12.4495   -0.0882   54.5822 C.3     1  ZINC000518234532   -0.1600
      2 C2        -11.0754   -0.7433   54.4283 C.3     1  ZINC000518234532    0.1800
      3 H3        -11.0715   -1.3750   53.5400 H       1  ZINC000518234532    0.1100
      4 N4        -10.0515    0.2958   54.2931 N.am    1  ZINC000518234532   -0.7300
      5 C5         -9.9251    0.9705   53.1332 C.2     1  ZINC000518234532    0.5200
      6 O6        -10.6600    0.7183   52.2019 O.2     1  ZINC000518234532   -0.5200
      7 C7         -8.8706    2.0380   52.9935 C.3     1  ZINC000518234532   -0.0700
      8 H8         -8.5418    2.3555   53.9831 H       1  ZINC000518234532    0.1100
      9 C9         -9.4539    3.2356   52.2412 C.3     1  ZINC000518234532   -0.1400
     10 C10        -7.6962    1.4867   52.2269 C.ar    1  ZINC000518234532   -0.1000
     11 C11        -7.7373    0.1968   51.7328 C.ar    1  ZINC000518234532   -0.0600
     12 C12        -6.6598   -0.3092   51.0294 C.ar    1  ZINC000518234532   -0.1300
     13 C13        -5.5403    0.4740   50.8200 C.ar    1  ZINC000518234532   -0.0900
     14 C14        -5.4967    1.7643   51.3138 C.ar    1  ZINC000518234532   -0.1600
     15 C15        -6.5776    2.2743   52.0125 C.ar    1  ZINC000518234532    0.1000
     16 F16        -6.5361    3.5354   52.4955 F       1  ZINC000518234532   -0.1400
     17 C17       -10.7806   -1.5838   55.6438 C.ar    1  ZINC000518234532   -0.0600
     18 C18        -9.9833   -1.0802   56.6540 C.ar    1  ZINC000518234532   -0.1100
     19 C19        -9.7109   -1.8512   57.7744 C.ar    1  ZINC000518234532    0.0800
     20 C20       -10.2436   -3.1304   57.8796 C.ar    1  ZINC000518234532    0.0600
     21 C21       -11.0422   -3.6311   56.8621 C.ar    1  ZINC000518234532   -0.0800
     22 C22       -11.3133   -2.8561   55.7494 C.ar    1  ZINC000518234532   -0.0800
     23 Br23      -12.4033   -3.5412   54.3645 Br      1  ZINC000518234532   -0.0300
     24 O24        -9.9952   -3.9005   58.9740 O.3     1  ZINC000518234532   -0.3000
     25 C25        -8.8914   -3.5106   59.7983 C.3     1  ZINC000518234532    0.0200
     26 C26        -8.9772   -1.9962   60.0316 C.3     1  ZINC000518234532    0.0200
     27 O27        -8.9204   -1.3427   58.7590 O.3     1  ZINC000518234532   -0.3000
     28 H28       -12.6627    0.5198   53.7030 H       1  ZINC000518234532    0.0700
     29 H29       -13.2113   -0.8613   54.6829 H       1  ZINC000518234532    0.0700
     30 H30       -12.4534    0.5435   55.4705 H       1  ZINC000518234532    0.0600
     31 H31        -9.4646    0.4982   55.0384 H       1  ZINC000518234532    0.4000
     32 H32       -10.3034    3.6345   52.7957 H       1  ZINC000518234532    0.0700
     33 H33        -8.6912    4.0078   52.1401 H       1  ZINC000518234532    0.0700
     34 H34        -9.7827    2.9181   51.2516 H       1  ZINC000518234532    0.0700
     35 H35        -8.6112   -0.4163   51.8964 H       1  ZINC000518234532    0.1300
     36 H36        -6.6928   -1.3174   50.6436 H       1  ZINC000518234532    0.1300
     37 H37        -4.6991    0.0775   50.2708 H       1  ZINC000518234532    0.1300
     38 H38        -4.6216    2.3758   51.1506 H       1  ZINC000518234532    0.1400
     39 H39        -9.5715   -0.0853   56.5709 H       1  ZINC000518234532    0.1400
     40 H40       -11.4556   -4.6257   56.9404 H       1  ZINC000518234532    0.1500
     41 H41        -8.9432   -4.0333   60.7534 H       1  ZINC000518234532    0.1300
     42 H42        -7.9545   -3.7528   59.2966 H       1  ZINC000518234532    0.0800
     43 H43        -9.9168   -1.7533   60.5278 H       1  ZINC000518234532    0.0800
     44 H44        -8.1400   -1.6715   60.6494 H       1  ZINC000518234532    0.1300
@<TRIPOS>BOND
     1     1     2    1
     2     1    28    1
     3     1    29    1
     4     1    30    1
     5     2     3    1
     6     2     4    1
     7     2    17    1
     8     4     5   am
     9     4    31    1
    10     5     6    2
    11     5     7    1
    12     7     8    1
    13     7     9    1
    14     7    10    1
    15     9    32    1
    16     9    33    1
    17     9    34    1
    18    10    15   ar
    19    10    11   ar
    20    11    12   ar
    21    11    35    1
    22    12    13   ar
    23    12    36    1
    24    13    14   ar
    25    13    37    1
    26    14    15   ar
    27    14    38    1
    28    15    16    1
    29    17    22   ar
    30    17    18   ar
    31    18    19   ar
    32    18    39    1
    33    19    27    1
    34    19    20   ar
    35    20    21   ar
    36    20    24    1
    37    21    22   ar
    38    21    40    1
    39    22    23    1
    40    24    25    1
    41    25    26    1
    42    25    41    1
    43    25    42    1
    44    26    27    1
    45    26    43    1
    46    26    44    1
@<TRIPOS>SUBSTRUCTURE
     1 ZINC000518234532        1 TEMP              0 ****  ****    0 ROOT


##########                                Name:    ZINC001064463188
##########                DOCK_Rotatable_Bonds:                   6
##########                         Heavy_Atoms:                  25
##########                    Molecular_Weight:             342.441
##########                DOCK_Rotatable_Bonds:                   6
##########                       Formal_Charge:          -0.0100004
##########                     HBond_Acceptors:                   6
##########                        HBond_Donors:                   0
##########                         Heavy_Atoms:                  25
##########                          Grid_Score:          -32.088188
##########                     Grid_vdw_energy:          -30.658329
##########                      Grid_es_energy:           -1.429858
##########           Internal_energy_repulsive:           12.855964

@<TRIPOS>MOLECULE
ZINC001064463188
 51 54 1 0 0
SMALL
USER_CHARGES


@<TRIPOS>ATOM
      1 C1        -11.2125   -3.3835   53.2611 C.3     1  ZINC001064463188    0.0400
      2 O2        -12.5040   -3.4173   53.8717 O.3     1  ZINC001064463188   -0.3000
      3 C3        -12.5535   -3.7278   55.1899 C.ar    1  ZINC001064463188    0.3900
      4 C4        -13.2570   -4.8495   55.6259 C.ar    1  ZINC001064463188   -0.2800
      5 C5        -13.2807   -5.1283   56.9796 C.ar    1  ZINC001064463188    0.2000
      6 N6        -12.6392   -4.3276   57.8170 N.ar    1  ZINC001064463188   -0.5800
      7 C7        -11.9786   -3.2682   57.3735 C.ar    1  ZINC001064463188    0.5300
      8 N8        -11.3199   -2.4555   58.2796 N.3     1  ZINC001064463188   -0.4500
      9 C9        -12.1628   -2.1737   59.4393 C.3     1  ZINC001064463188    0.0700
     10 C10       -12.0680   -0.6897   59.8132 C.3     1  ZINC001064463188   -0.1200
     11 C11       -10.6895   -0.3191   60.3261 C.3     1  ZINC001064463188    0.1400
     12 H12       -10.6430    0.7514   60.5258 H       1  ZINC001064463188    0.0900
     13 C13       -10.3291   -1.1015   61.5906 C.3     1  ZINC001064463188   -0.1300
     14 C14        -9.6497   -2.3784   61.0653 C.3     1  ZINC001064463188   -0.1300
     15 C15        -9.2838   -2.0695   59.6094 C.3     1  ZINC001064463188    0.1200
     16 H16        -8.2069   -2.1679   59.4723 H       1  ZINC001064463188    0.0900
     17 C17       -10.0086   -3.0407   58.6649 C.3     1  ZINC001064463188    0.0600
     18 N18        -9.7008   -0.6829   59.2690 N.am    1  ZINC001064463188   -0.6000
     19 C19        -9.2760    0.0682   58.2336 C.2     1  ZINC001064463188    0.5800
     20 O20        -8.4578   -0.3795   57.4531 O.2     1  ZINC001064463188   -0.5400
     21 C21        -9.8019    1.4293   58.0476 C.2     1  ZINC001064463188   -0.2200
     22 C22       -10.4566    1.7428   56.9333 C.2     1  ZINC001064463188    0.0000
     23 C23       -10.9953    3.1373   56.7428 C.3     1  ZINC001064463188   -0.1300
     24 C24       -10.6598    0.7035   55.8610 C.3     1  ZINC001064463188   -0.1200
     25 C25       -10.9492    1.1991   54.4427 C.3     1  ZINC001064463188   -0.1900
     26 C26        -9.5868    0.5882   54.7765 C.3     1  ZINC001064463188   -0.1600
     27 N27       -11.9279   -2.9712   56.0835 N.ar    1  ZINC001064463188   -0.5900
     28 H28       -10.7433   -4.3636   53.3490 H       1  ZINC001064463188    0.0600
     29 H29       -11.3152   -3.1230   52.2077 H       1  ZINC001064463188    0.1000
     30 H30       -10.5936   -2.6384   53.7610 H       1  ZINC001064463188    0.0600
     31 H31       -13.7722   -5.4862   54.9219 H       1  ZINC001064463188    0.1500
     32 H32       -13.8170   -5.9894   57.3503 H       1  ZINC001064463188    0.1800
     33 H33       -13.1975   -2.4213   59.2024 H       1  ZINC001064463188    0.0800
     34 H34       -11.8321   -2.7805   60.2822 H       1  ZINC001064463188    0.0600
     35 H35       -12.2923   -0.0875   58.9328 H       1  ZINC001064463188    0.0800
     36 H36       -12.8044   -0.4715   60.5867 H       1  ZINC001064463188    0.0800
     37 H37        -9.6382   -0.5289   62.2093 H       1  ZINC001064463188    0.0800
     38 H38       -11.2284   -1.3519   62.1533 H       1  ZINC001064463188    0.0900
     39 H39        -8.7511   -2.5938   61.6435 H       1  ZINC001064463188    0.0800
     40 H40       -10.3404   -3.2204   61.1110 H       1  ZINC001064463188    0.0800
     41 H41       -10.1846   -3.9861   59.1779 H       1  ZINC001064463188    0.0700
     42 H42        -9.3977   -3.2122   57.7786 H       1  ZINC001064463188    0.0900
     43 H43        -9.6562    2.1742   58.8161 H       1  ZINC001064463188    0.1200
     44 H44       -10.2405    3.7550   56.2562 H       1  ZINC001064463188    0.0800
     45 H45       -11.8898    3.0994   56.1211 H       1  ZINC001064463188    0.0800
     46 H46       -11.2452    3.5659   57.7133 H       1  ZINC001064463188    0.0700
     47 H47       -11.1503   -0.2150   56.1835 H       1  ZINC001064463188    0.1400
     48 H48       -11.6304    0.6066   53.8319 H       1  ZINC001064463188    0.1000
     49 H49       -10.9927    2.2767   54.2852 H       1  ZINC001064463188    0.1000
     50 H50        -8.7339    1.2640   54.8386 H       1  ZINC001064463188    0.0900
     51 H51        -9.3715   -0.4061   54.3852 H       1  ZINC001064463188    0.1000
@<TRIPOS>BOND
     1     1     2    1
     2     1    28    1
     3     1    29    1
     4     1    30    1
     5     2     3    1
     6     3    27   ar
     7     3     4   ar
     8     4     5   ar
     9     4    31    1
    10     5     6   ar
    11     5    32    1
    12     6     7   ar
    13     7     8    1
    14     7    27   ar
    15     8    17    1
    16     8     9    1
    17     9    10    1
    18     9    33    1
    19     9    34    1
    20    10    11    1
    21    10    35    1
    22    10    36    1
    23    11    12    1
    24    11    18    1
    25    11    13    1
    26    13    14    1
    27    13    37    1
    28    13    38    1
    29    14    15    1
    30    14    39    1
    31    14    40    1
    32    15    16    1
    33    15    17    1
    34    15    18    1
    35    17    41    1
    36    17    42    1
    37    18    19   am
    38    19    20    2
    39    19    21    1
    40    21    22    2
    41    21    43    1
    42    22    23    1
    43    22    24    1
    44    23    44    1
    45    23    45    1
    46    23    46    1
    47    24    26    1
    48    24    25    1
    49    24    47    1
    50    25    26    1
    51    25    48    1
    52    25    49    1
    53    26    50    1
    54    26    51    1
@<TRIPOS>SUBSTRUCTURE
     1 ZINC001064463188        1 TEMP              0 ****  ****    0 ROOT


##########                                Name:    ZINC000579444893
##########                DOCK_Rotatable_Bonds:                   8
##########                         Heavy_Atoms:                  26
##########                    Molecular_Weight:             365.494
##########                DOCK_Rotatable_Bonds:                   8
##########                       Formal_Charge:         -0.00999993
##########                     HBond_Acceptors:                   7
##########                        HBond_Donors:                   1
##########                         Heavy_Atoms:                  26
##########                          Grid_Score:          -32.051849
##########                     Grid_vdw_energy:          -31.140614
##########                      Grid_es_energy:           -0.911235
##########           Internal_energy_repulsive:           29.590986

@<TRIPOS>MOLECULE
ZINC000579444893
 58 60 1 0 0
SMALL
USER_CHARGES


@<TRIPOS>ATOM
      1 C1         -5.9232    2.9336   57.6804 C.3     1  ZINC000579444893   -0.1600
      2 C2         -6.9598    2.5319   56.6292 C.3     1  ZINC000579444893    0.1700
      3 H3         -6.6066    1.6548   56.0872 H       1  ZINC000579444893    0.0900
      4 N4         -8.2294    2.2192   57.2899 N.am    1  ZINC000579444893   -0.7400
      5 C5         -8.8845    1.0811   56.9867 C.2     1  ZINC000579444893    0.7100
      6 O6         -8.4225    0.3146   56.1635 O.2     1  ZINC000579444893   -0.5900
      7 N7        -10.0516    0.7926   57.5958 N.am    1  ZINC000579444893   -0.6300
      8 C8        -10.6073    1.7152   58.5888 C.3     1  ZINC000579444893    0.0800
      9 C9        -10.7646   -0.4437   57.2648 C.3     1  ZINC000579444893    0.1100
     10 C10       -10.8508   -1.3312   58.5081 C.3     1  ZINC000579444893    0.0600
     11 H11       -11.3777   -0.8045   59.3037 H       1  ZINC000579444893    0.1000
     12 C12        -9.4320   -1.7120   58.9807 C.3     1  ZINC000579444893   -0.1600
     13 C13        -9.5990   -3.1857   59.4360 C.3     1  ZINC000579444893    0.0800
     14 H14        -9.9970   -3.2386   60.4493 H       1  ZINC000579444893    0.1000
     15 F15        -8.3886   -3.8805   59.3389 F       1  ZINC000579444893   -0.2000
     16 C16       -10.6284   -3.7163   58.4072 C.3     1  ZINC000579444893    0.0200
     17 N17       -11.5572   -2.5838   58.1823 N.3     1  ZINC000579444893   -0.5000
     18 C18       -12.0432   -2.5687   56.7961 C.3     1  ZINC000579444893    0.1000
     19 C19       -12.8333   -3.8234   56.5271 C.2     1  ZINC000579444893    0.0800
     20 C20       -13.5266   -4.5409   57.4411 C.2     1  ZINC000579444893   -0.2500
     21 C21       -14.1138   -5.6256   56.7815 C.2     1  ZINC000579444893    0.0400
     22 N22       -13.7847   -5.5615   55.5167 N.2     1  ZINC000579444893   -0.2900
     23 N23       -12.9811   -4.4294   55.3304 N.pl3   1  ZINC000579444893   -0.3700
     24 C24       -12.3965   -3.9867   54.0621 C.3     1  ZINC000579444893    0.0900
     25 C25        -7.1664    3.6882   55.6487 C.3     1  ZINC000579444893   -0.1000
     26 C26        -5.8455    4.0137   54.9083 C.3     1  ZINC000579444893   -0.1200
     27 C27        -6.3408    4.7043   53.6134 C.3     1  ZINC000579444893   -0.1300
     28 C28        -7.6137    3.9216   53.2303 C.3     1  ZINC000579444893   -0.1300
     29 C29        -8.1386    3.2755   54.5243 C.3     1  ZINC000579444893   -0.1200
     30 H30        -5.8432    2.1473   58.4309 H       1  ZINC000579444893    0.0600
     31 H31        -4.9554    3.0771   57.1999 H       1  ZINC000579444893    0.0700
     32 H32        -6.2324    3.8627   58.1591 H       1  ZINC000579444893    0.0500
     33 H33        -8.5985    2.8312   57.9457 H       1  ZINC000579444893    0.4000
     34 H34       -11.1792    2.4927   58.0824 H       1  ZINC000579444893    0.0600
     35 H35       -11.2607    1.1676   59.2680 H       1  ZINC000579444893    0.0800
     36 H36        -9.7954    2.1718   59.1549 H       1  ZINC000579444893    0.0700
     37 H37       -11.7701   -0.2021   56.9204 H       1  ZINC000579444893    0.0900
     38 H38       -10.2281   -0.9728   56.4772 H       1  ZINC000579444893    0.0900
     39 H39        -8.7199   -1.6410   58.1586 H       1  ZINC000579444893    0.1100
     40 H40        -9.1223   -1.0835   59.8155 H       1  ZINC000579444893    0.0800
     41 H41       -10.1293   -3.9897   57.4775 H       1  ZINC000579444893    0.0600
     42 H42       -11.1669   -4.5714   58.8155 H       1  ZINC000579444893    0.0900
     43 H43       -12.6810   -1.6980   56.6441 H       1  ZINC000579444893    0.1100
     44 H44       -11.1943   -2.5207   56.1140 H       1  ZINC000579444893    0.0500
     45 H45       -13.6114   -4.3161   58.4941 H       1  ZINC000579444893    0.1500
     46 H46       -14.7315   -6.3851   57.2375 H       1  ZINC000579444893    0.1800
     47 H47       -13.0649   -3.2703   53.5844 H       1  ZINC000579444893    0.0800
     48 H48       -11.4328   -3.5140   54.2516 H       1  ZINC000579444893    0.0800
     49 H49       -12.2569   -4.8464   53.4067 H       1  ZINC000579444893    0.0900
     50 H50        -7.5399    4.5686   56.1718 H       1  ZINC000579444893    0.0800
     51 H51        -5.2298    4.6934   55.4973 H       1  ZINC000579444893    0.0700
     52 H52        -5.2988    3.1003   54.6741 H       1  ZINC000579444893    0.0700
     53 H53        -6.5797    5.7502   53.8062 H       1  ZINC000579444893    0.0700
     54 H54        -5.5911    4.6221   52.8265 H       1  ZINC000579444893    0.0700
     55 H55        -8.3616    4.6015   52.8223 H       1  ZINC000579444893    0.0600
     56 H56        -7.3718    3.1500   52.4993 H       1  ZINC000579444893    0.0600
     57 H57        -8.1515    2.1905   54.4215 H       1  ZINC000579444893    0.0600
     58 H58        -9.1413    3.6420   54.7445 H       1  ZINC000579444893    0.0600
@<TRIPOS>BOND
     1     1     2    1
     2     1    30    1
     3     1    31    1
     4     1    32    1
     5     2     3    1
     6     2     4    1
     7     2    25    1
     8     4     5   am
     9     4    33    1
    10     5     6    2
    11     5     7   am
    12     7     8    1
    13     7     9    1
    14     8    34    1
    15     8    35    1
    16     8    36    1
    17     9    10    1
    18     9    37    1
    19     9    38    1
    20    10    11    1
    21    10    17    1
    22    10    12    1
    23    12    13    1
    24    12    39    1
    25    12    40    1
    26    13    14    1
    27    13    15    1
    28    13    16    1
    29    16    17    1
    30    16    41    1
    31    16    42    1
    32    17    18    1
    33    18    19    1
    34    18    43    1
    35    18    44    1
    36    19    23    1
    37    19    20    2
    38    20    21    1
    39    20    45    1
    40    21    22    2
    41    21    46    1
    42    22    23    1
    43    23    24    1
    44    24    47    1
    45    24    48    1
    46    24    49    1
    47    25    29    1
    48    25    26    1
    49    25    50    1
    50    26    27    1
    51    26    51    1
    52    26    52    1
    53    27    28    1
    54    27    53    1
    55    27    54    1
    56    28    29    1
    57    28    55    1
    58    28    56    1
    59    29    57    1
    60    29    58    1
@<TRIPOS>SUBSTRUCTURE
     1 ZINC000579444893        1 TEMP              0 ****  ****    0 ROOT


##########                                Name:    ZINC000885154703
##########                DOCK_Rotatable_Bonds:                   5
##########                         Heavy_Atoms:                  24
##########                    Molecular_Weight:             396.259
##########                DOCK_Rotatable_Bonds:                   5
##########                       Formal_Charge:          -0.0099998
##########                     HBond_Acceptors:                   6
##########                        HBond_Donors:                   1
##########                         Heavy_Atoms:                  24
##########                          Grid_Score:          -32.049984
##########                     Grid_vdw_energy:          -32.074615
##########                      Grid_es_energy:            0.024632
##########           Internal_energy_repulsive:            7.320166

@<TRIPOS>MOLECULE
ZINC000885154703
 43 45 1 0 0
SMALL
USER_CHARGES


@<TRIPOS>ATOM
      1 C1        -14.1355   -0.8840   47.8523 C.3     1  ZINC000885154703   -0.1500
      2 C2        -14.8008   -0.9373   49.2291 C.3     1  ZINC000885154703   -0.0300
      3 C3        -13.7469   -0.8292   50.3008 C.2     1  ZINC000885154703    0.1700
      4 N4        -13.3082    0.2686   50.8401 N.2     1  ZINC000885154703   -0.3800
      5 O5        -12.4616    0.0185   51.6722 O.3     1  ZINC000885154703    0.0800
      6 C6        -12.2743   -1.3027   51.7448 C.2     1  ZINC000885154703    0.1800
      7 C7        -11.3116   -2.0240   52.6525 C.3     1  ZINC000885154703    0.0000
      8 H8        -10.3226   -2.0587   52.1954 H       1  ZINC000885154703    0.1300
      9 C9        -11.8168   -3.4552   52.9282 C.3     1  ZINC000885154703   -0.1200
     10 C10       -11.4402   -3.7123   54.4085 C.3     1  ZINC000885154703   -0.1300
     11 C11       -11.7023   -2.3374   55.0717 C.3     1  ZINC000885154703    0.1400
     12 H12       -12.7642   -2.2125   55.2838 H       1  ZINC000885154703    0.1000
     13 N13       -10.9159   -2.2025   56.3003 N.am    1  ZINC000885154703   -0.7100
     14 C14       -11.4252   -2.6211   57.4758 C.2     1  ZINC000885154703    0.5700
     15 O15       -12.5378   -3.1095   57.5168 O.2     1  ZINC000885154703   -0.5100
     16 C16       -10.6316   -2.4867   58.7142 C.ar    1  ZINC000885154703   -0.1600
     17 C17        -9.8373   -3.5482   59.1582 C.ar    1  ZINC000885154703    0.1500
     18 F18        -9.7928   -4.7013   58.4557 F       1  ZINC000885154703   -0.1200
     19 C19        -9.0967   -3.4140   60.3188 C.ar    1  ZINC000885154703   -0.1500
     20 C20        -9.1417   -2.2348   61.0379 C.ar    1  ZINC000885154703   -0.0400
     21 C21        -9.9269   -1.1796   60.6028 C.ar    1  ZINC000885154703   -0.1100
     22 Br22       -9.9795    0.4285   61.5963 Br      1  ZINC000885154703   -0.0300
     23 C23       -10.6664   -1.2967   59.4443 C.ar    1  ZINC000885154703    0.0100
     24 C24       -11.5191   -0.1468   58.9734 C.3     1  ZINC000885154703   -0.1300
     25 C25       -11.2379   -1.3125   54.0148 C.3     1  ZINC000885154703   -0.1300
     26 N26       -13.0918   -1.8517   50.8789 N.2     1  ZINC000885154703   -0.4800
     27 H27       -13.6017    0.0601   47.7430 H       1  ZINC000885154703    0.0600
     28 H28       -13.4331   -1.7119   47.7559 H       1  ZINC000885154703    0.0600
     29 H29       -14.8978   -0.9623   47.0771 H       1  ZINC000885154703    0.0700
     30 H30       -15.5033   -0.1094   49.3254 H       1  ZINC000885154703    0.1000
     31 H31       -15.3346   -1.8813   49.3384 H       1  ZINC000885154703    0.0900
     32 H32       -12.8971   -3.5109   52.7943 H       1  ZINC000885154703    0.0800
     33 H33       -11.3133   -4.1696   52.2769 H       1  ZINC000885154703    0.0900
     34 H34       -12.0815   -4.4793   54.8427 H       1  ZINC000885154703    0.0800
     35 H35       -10.3899   -3.9900   54.4972 H       1  ZINC000885154703    0.0800
     36 H36       -10.0287   -1.8117   56.2677 H       1  ZINC000885154703    0.4000
     37 H37        -8.4824   -4.2326   60.6638 H       1  ZINC000885154703    0.1500
     38 H38        -8.5621   -2.1354   61.9437 H       1  ZINC000885154703    0.1500
     39 H39       -10.9323    0.4959   58.3172 H       1  ZINC000885154703    0.0900
     40 H40       -12.3807   -0.5327   58.4285 H       1  ZINC000885154703    0.0800
     41 H41       -11.8612    0.4280   59.8340 H       1  ZINC000885154703    0.0900
     42 H42       -10.2133   -1.0026   54.2204 H       1  ZINC000885154703    0.0900
     43 H43       -11.8987   -0.4458   54.0196 H       1  ZINC000885154703    0.0800
@<TRIPOS>BOND
     1     1     2    1
     2     1    27    1
     3     1    28    1
     4     1    29    1
     5     2     3    1
     6     2    30    1
     7     2    31    1
     8     3    26    1
     9     3     4    2
    10     4     5    1
    11     5     6    1
    12     6     7    1
    13     6    26    2
    14     7     8    1
    15     7    25    1
    16     7     9    1
    17     9    10    1
    18     9    32    1
    19     9    33    1
    20    10    11    1
    21    10    34    1
    22    10    35    1
    23    11    12    1
    24    11    13    1
    25    11    25    1
    26    13    14   am
    27    13    36    1
    28    14    15    2
    29    14    16    1
    30    16    23   ar
    31    16    17   ar
    32    17    18    1
    33    17    19   ar
    34    19    20   ar
    35    19    37    1
    36    20    21   ar
    37    20    38    1
    38    21    22    1
    39    21    23   ar
    40    23    24    1
    41    24    39    1
    42    24    40    1
    43    24    41    1
    44    25    42    1
    45    25    43    1
@<TRIPOS>SUBSTRUCTURE
     1 ZINC000885154703        1 TEMP              0 ****  ****    0 ROOT


##########                                Name:    ZINC001191386213
##########                DOCK_Rotatable_Bonds:                   6
##########                         Heavy_Atoms:                  29
##########                    Molecular_Weight:             392.433
##########                DOCK_Rotatable_Bonds:                   6
##########                       Formal_Charge:               -0.02
##########                     HBond_Acceptors:                   7
##########                        HBond_Donors:                   2
##########                         Heavy_Atoms:                  29
##########                          Grid_Score:          -32.041084
##########                     Grid_vdw_energy:          -31.201946
##########                      Grid_es_energy:           -0.839136
##########           Internal_energy_repulsive:           10.880337

@<TRIPOS>MOLECULE
ZINC001191386213
 50 53 1 0 0
SMALL
USER_CHARGES


@<TRIPOS>ATOM
      1 C1        -11.7485    1.9569   51.9168 C.3     1  ZINC001191386213   -0.1700
      2 C2        -12.5559    0.8333   52.5140 C.2     1  ZINC001191386213    0.5100
      3 O3        -12.9820    0.9276   53.6456 O.2     1  ZINC001191386213   -0.5200
      4 N4        -12.8046   -0.2764   51.7907 N.am    1  ZINC001191386213   -0.6800
      5 C5        -13.5543   -1.3198   52.3453 C.ar    1  ZINC001191386213    0.1400
      6 C6        -14.7926   -1.6477   51.8077 C.ar    1  ZINC001191386213   -0.1400
      7 C7        -15.5356   -2.6779   52.3525 C.ar    1  ZINC001191386213   -0.1000
      8 C8        -15.0514   -3.3864   53.4340 C.ar    1  ZINC001191386213   -0.1100
      9 C9        -13.8104   -3.0639   53.9799 C.ar    1  ZINC001191386213    0.0100
     10 C10       -13.2885   -3.8249   55.1428 C.2     1  ZINC001191386213    0.0700
     11 N11       -13.9270   -4.7652   55.8069 N.2     1  ZINC001191386213   -0.2500
     12 N12       -13.1988   -5.2257   56.7590 N.pl3   1  ZINC001191386213   -0.3800
     13 C13       -11.9916   -4.5852   56.7721 C.2     1  ZINC001191386213   -0.0400
     14 C14       -10.8784   -4.8221   57.7055 C.2     1  ZINC001191386213    0.6100
     15 O15       -10.4034   -5.9364   57.8154 O.2     1  ZINC001191386213   -0.5100
     16 N16       -10.3853   -3.8041   58.4384 N.am    1  ZINC001191386213   -0.6200
     17 C17        -9.2809   -3.8998   59.4040 C.3     1  ZINC001191386213    0.0800
     18 C18        -9.0844   -2.4967   60.0160 C.3     1  ZINC001191386213   -0.1200
     19 C19       -10.4588   -1.8177   59.7768 C.3     1  ZINC001191386213   -0.0600
     20 H20       -11.1736   -2.0996   60.5499 H       1  ZINC001191386213    0.1000
     21 C21       -10.3149   -0.3197   59.6985 C.ar    1  ZINC001191386213   -0.1100
     22 C22        -9.4577    0.2449   58.7734 C.ar    1  ZINC001191386213   -0.0900
     23 C23        -9.3254    1.6193   58.7014 C.ar    1  ZINC001191386213   -0.1300
     24 C24       -10.0498    2.4301   59.5548 C.ar    1  ZINC001191386213   -0.0900
     25 C25       -10.9076    1.8676   60.4812 C.ar    1  ZINC001191386213   -0.1500
     26 C26       -11.0459    0.4919   60.5498 C.ar    1  ZINC001191386213    0.1100
     27 F27       -11.8839   -0.0591   61.4550 F       1  ZINC001191386213   -0.1400
     28 C28       -10.8599   -2.4088   58.3998 C.3     1  ZINC001191386213    0.1200
     29 C29       -12.0195   -3.6763   55.7316 C.2     1  ZINC001191386213   -0.1300
     30 C30       -13.0587   -2.0307   53.4281 C.ar    1  ZINC001191386213   -0.1000
     31 H31       -11.6528    2.7624   52.6449 H       1  ZINC001191386213    0.1000
     32 H32       -10.7578    1.5898   51.6487 H       1  ZINC001191386213    0.0900
     33 H33       -12.2509    2.3311   51.0248 H       1  ZINC001191386213    0.0900
     34 H34       -12.4639   -0.3518   50.8855 H       1  ZINC001191386213    0.4100
     35 H35       -15.1759   -1.0959   50.9621 H       1  ZINC001191386213    0.1300
     36 H36       -16.4977   -2.9292   51.9313 H       1  ZINC001191386213    0.1300
     37 H37       -15.6349   -4.1906   53.8575 H       1  ZINC001191386213    0.1300
     38 H38       -13.4660   -5.9236   57.3774 H       1  ZINC001191386213    0.4400
     39 H39        -9.5345   -4.6138   60.1877 H       1  ZINC001191386213    0.0700
     40 H40        -8.3694   -4.2131   58.8950 H       1  ZINC001191386213    0.0800
     41 H41        -8.8698   -2.5677   61.0823 H       1  ZINC001191386213    0.0900
     42 H42        -8.2922   -1.9572   59.4970 H       1  ZINC001191386213    0.0900
     43 H43        -8.8906   -0.3877   58.1065 H       1  ZINC001191386213    0.1300
     44 H44        -8.6552    2.0597   57.9780 H       1  ZINC001191386213    0.1300
     45 H45        -9.9454    3.5036   59.4978 H       1  ZINC001191386213    0.1300
     46 H46       -11.4730    2.5013   61.1484 H       1  ZINC001191386213    0.1400
     47 H47       -10.3727   -1.8590   57.5944 H       1  ZINC001191386213    0.0800
     48 H48       -11.9426   -2.3833   58.2768 H       1  ZINC001191386213    0.0900
     49 H49       -11.2367   -2.9930   55.4373 H       1  ZINC001191386213    0.1700
     50 H50       -12.0964   -1.7772   53.8478 H       1  ZINC001191386213    0.1500
@<TRIPOS>BOND
     1     1     2    1
     2     1    31    1
     3     1    32    1
     4     1    33    1
     5     2     3    2
     6     2     4   am
     7     4     5    1
     8     4    34    1
     9     5    30   ar
    10     5     6   ar
    11     6     7   ar
    12     6    35    1
    13     7     8   ar
    14     7    36    1
    15     8     9   ar
    16     8    37    1
    17     9    10    1
    18     9    30   ar
    19    10    29    1
    20    10    11    2
    21    11    12    1
    22    12    13    1
    23    12    38    1
    24    13    14    1
    25    13    29    2
    26    14    15    2
    27    14    16   am
    28    16    28    1
    29    16    17    1
    30    17    18    1
    31    17    39    1
    32    17    40    1
    33    18    19    1
    34    18    41    1
    35    18    42    1
    36    19    20    1
    37    19    21    1
    38    19    28    1
    39    21    26   ar
    40    21    22   ar
    41    22    23   ar
    42    22    43    1
    43    23    24   ar
    44    23    44    1
    45    24    25   ar
    46    24    45    1
    47    25    26   ar
    48    25    46    1
    49    26    27    1
    50    28    47    1
    51    28    48    1
    52    29    49    1
    53    30    50    1
@<TRIPOS>SUBSTRUCTURE
     1 ZINC001191386213        1 TEMP              0 ****  ****    0 ROOT


##########                                Name:    ZINC000629379364
##########                DOCK_Rotatable_Bonds:                   5
##########                         Heavy_Atoms:                  23
##########                    Molecular_Weight:             386.261
##########                DOCK_Rotatable_Bonds:                   5
##########                       Formal_Charge:               -0.02
##########                     HBond_Acceptors:                   5
##########                        HBond_Donors:                   1
##########                         Heavy_Atoms:                  23
##########                          Grid_Score:          -32.037300
##########                     Grid_vdw_energy:          -29.507338
##########                      Grid_es_energy:           -2.529963
##########           Internal_energy_repulsive:           21.224159

@<TRIPOS>MOLECULE
ZINC000629379364
 44 46 1 0 0
SMALL
USER_CHARGES


@<TRIPOS>ATOM
      1 O1        -12.5982   -3.4338   58.2239 O.co2   1  ZINC000629379364   -0.6800
      2 C2        -11.4722   -3.9013   58.2261 C.2     1  ZINC000629379364    0.5000
      3 O3        -11.2938   -5.0632   57.9023 O.co2   1  ZINC000629379364   -0.6900
      4 C4        -10.3000   -3.0413   58.6229 C.3     1  ZINC000629379364   -0.1600
      5 H5         -9.4211   -3.3185   58.0407 H       1  ZINC000629379364    0.0800
      6 C6        -10.0099   -3.2084   60.1248 C.3     1  ZINC000629379364   -0.1300
      7 C7         -8.9222   -2.2436   60.5873 C.3     1  ZINC000629379364   -0.0100
      8 N8         -9.2507   -0.8448   60.2506 N.4     1  ZINC000629379364   -0.3700
      9 H9         -8.5132   -0.2337   60.5677 H       1  ZINC000629379364    0.4200
     10 C10       -10.5206   -0.4642   60.8833 C.3     1  ZINC000629379364   -0.0200
     11 C11       -10.2396    0.4216   62.0987 C.3     1  ZINC000629379364    0.0300
     12 O12        -9.4942   -0.3200   63.0664 O.3     1  ZINC000629379364   -0.3200
     13 C13        -9.2578    0.2860   64.2596 C.ar    1  ZINC000629379364    0.1600
     14 C14        -8.6243   -0.4100   65.2783 C.ar    1  ZINC000629379364   -0.2300
     15 C15        -8.3846    0.2091   66.4925 C.ar    1  ZINC000629379364    0.1500
     16 F16        -7.7675   -0.4680   67.4855 F       1  ZINC000629379364   -0.1200
     17 C17        -8.7767    1.5223   66.6898 C.ar    1  ZINC000629379364   -0.1600
     18 C18        -9.4091    2.2170   65.6743 C.ar    1  ZINC000629379364   -0.0300
     19 Br19       -9.9433    4.0104   65.9470 Br      1  ZINC000629379364   -0.0100
     20 C20        -9.6449    1.6035   64.4583 C.ar    1  ZINC000629379364   -0.1300
     21 C21        -9.3733   -0.7620   58.8042 C.3     1  ZINC000629379364   -0.0100
     22 H22        -8.4868   -1.1831   58.3299 H       1  ZINC000629379364    0.1400
     23 C23        -9.6692    0.6256   58.2256 C.3     1  ZINC000629379364   -0.1300
     24 C24       -10.2975    0.3006   56.8432 C.3     1  ZINC000629379364   -0.1200
     25 C25       -10.8783   -1.1308   56.9530 C.3     1  ZINC000629379364   -0.1100
     26 C26       -10.6312   -1.5761   58.3970 C.3     1  ZINC000629379364   -0.0700
     27 H27       -11.4646   -1.2686   59.0286 H       1  ZINC000629379364    0.1000
     28 H28       -10.9224   -3.0149   60.6886 H       1  ZINC000629379364    0.0800
     29 H29        -9.6842   -4.2312   60.3141 H       1  ZINC000629379364    0.1100
     30 H30        -8.8061   -2.3308   61.6677 H       1  ZINC000629379364    0.1200
     31 H31        -7.9813   -2.5127   60.1076 H       1  ZINC000629379364    0.1300
     32 H32       -11.1329    0.0845   60.1676 H       1  ZINC000629379364    0.1400
     33 H33       -11.0508   -1.3615   61.2025 H       1  ZINC000629379364    0.1700
     34 H34        -9.6645    1.2937   61.7875 H       1  ZINC000629379364    0.1100
     35 H35       -11.1830    0.7463   62.5376 H       1  ZINC000629379364    0.0900
     36 H36        -8.3186   -1.4343   65.1240 H       1  ZINC000629379364    0.1500
     37 H37        -8.5888    2.0047   67.6376 H       1  ZINC000629379364    0.1500
     38 H38       -10.1383    2.1468   63.6660 H       1  ZINC000629379364    0.1500
     39 H39       -10.3790    1.1623   58.8549 H       1  ZINC000629379364    0.0800
     40 H40        -8.7491    1.1975   58.1058 H       1  ZINC000629379364    0.0900
     41 H41       -11.0930    1.0107   56.6176 H       1  ZINC000629379364    0.0800
     42 H42        -9.5329    0.3356   56.0672 H       1  ZINC000629379364    0.0800
     43 H43       -11.9446   -1.1238   56.7268 H       1  ZINC000629379364    0.0900
     44 H44       -10.3525   -1.8044   56.2763 H       1  ZINC000629379364    0.0800
@<TRIPOS>BOND
     1     1     2   ar
     2     2     3   ar
     3     2     4    1
     4     4     5    1
     5     4    26    1
     6     4     6    1
     7     6     7    1
     8     6    28    1
     9     6    29    1
    10     7     8    1
    11     7    30    1
    12     7    31    1
    13     8     9    1
    14     8    10    1
    15     8    21    1
    16    10    11    1
    17    10    32    1
    18    10    33    1
    19    11    12    1
    20    11    34    1
    21    11    35    1
    22    12    13    1
    23    13    20   ar
    24    13    14   ar
    25    14    15   ar
    26    14    36    1
    27    15    16    1
    28    15    17   ar
    29    17    18   ar
    30    17    37    1
    31    18    19    1
    32    18    20   ar
    33    20    38    1
    34    21    22    1
    35    21    26    1
    36    21    23    1
    37    23    24    1
    38    23    39    1
    39    23    40    1
    40    24    25    1
    41    24    41    1
    42    24    42    1
    43    25    26    1
    44    25    43    1
    45    25    44    1
    46    26    27    1
@<TRIPOS>SUBSTRUCTURE
     1 ZINC000629379364        1 TEMP              0 ****  ****    0 ROOT


##########                                Name:    ZINC000599228306
##########                DOCK_Rotatable_Bonds:                   8
##########                         Heavy_Atoms:                  25
##########                    Molecular_Weight:             379.382
##########                DOCK_Rotatable_Bonds:                   8
##########                       Formal_Charge:        -4.09782e-08
##########                     HBond_Acceptors:                  10
##########                        HBond_Donors:                   1
##########                         Heavy_Atoms:                  25
##########                          Grid_Score:          -32.032253
##########                     Grid_vdw_energy:          -30.984331
##########                      Grid_es_energy:           -1.047923
##########           Internal_energy_repulsive:           17.574106

@<TRIPOS>MOLECULE
ZINC000599228306
 44 44 1 0 0
SMALL
USER_CHARGES


@<TRIPOS>ATOM
      1 C1         -9.6543   -1.2835   52.2149 C.3     1  ZINC000599228306    0.0400
      2 O2        -10.8768   -1.4988   52.9683 O.3     1  ZINC000599228306   -0.3500
      3 C3        -11.1440   -2.7622   53.3526 C.2     1  ZINC000599228306    0.5100
      4 O4        -10.2914   -3.6216   53.2499 O.2     1  ZINC000599228306   -0.4800
      5 C5        -12.4723   -3.1021   53.8982 C.ar    1  ZINC000599228306   -0.1500
      6 C6        -13.6282   -2.7783   53.1840 C.ar    1  ZINC000599228306   -0.0100
      7 C7        -14.8678   -3.0994   53.7008 C.ar    1  ZINC000599228306    0.0700
      8 F8        -15.9867   -2.7868   53.0111 F       1  ZINC000599228306   -0.1200
      9 C9        -14.9673   -3.7420   54.9250 C.ar    1  ZINC000599228306    0.0100
     10 C10       -13.8279   -4.0658   55.6378 C.ar    1  ZINC000599228306   -0.7100
     11 S11       -13.9666   -4.8831   57.1927 S.o2    1  ZINC000599228306    2.7000
     12 O12       -14.2212   -6.2513   56.9054 O.2     1  ZINC000599228306   -0.9200
     13 O13       -12.8647   -4.4454   57.9759 O.2     1  ZINC000599228306   -0.9300
     14 N14       -15.3279   -4.2996   57.9335 N.am    1  ZINC000599228306   -1.1000
     15 C15       -15.4431   -2.8703   58.2336 C.3     1  ZINC000599228306    0.1600
     16 H16       -14.7087   -2.3161   57.6490 H       1  ZINC000599228306    0.1300
     17 C17       -16.8498   -2.3859   57.8766 C.3     1  ZINC000599228306   -0.1700
     18 C18       -15.1911   -2.6435   59.7019 C.2     1  ZINC000599228306    0.4700
     19 O19       -14.9220   -3.5772   60.4200 O.2     1  ZINC000599228306   -0.4900
     20 O20       -15.2658   -1.4042   60.2121 O.3     1  ZINC000599228306   -0.3400
     21 C21       -14.1009   -0.9142   60.9269 C.3     1  ZINC000599228306    0.1200
     22 C22       -14.1524    0.6131   60.9999 C.3     1  ZINC000599228306   -0.1900
     23 C23       -14.0910   -1.4924   62.3434 C.3     1  ZINC000599228306   -0.1400
     24 C24       -12.8314   -1.3471   60.1906 C.3     1  ZINC000599228306   -0.1800
     25 C25       -12.5798   -3.7554   55.1306 C.ar    1  ZINC000599228306    0.2500
     26 F26       -11.4672   -4.0728   55.8282 F       1  ZINC000599228306   -0.0900
     27 H27        -9.5605   -0.2258   51.9691 H       1  ZINC000599228306    0.1100
     28 H28        -8.7986   -1.5946   52.8143 H       1  ZINC000599228306    0.0700
     29 H29        -9.6861   -1.8688   51.2959 H       1  ZINC000599228306    0.0700
     30 H30       -13.5525   -2.2776   52.2301 H       1  ZINC000599228306    0.1700
     31 H31       -15.9395   -3.9906   55.3241 H       1  ZINC000599228306    0.1800
     32 H32       -16.0491   -4.9042   58.1685 H       1  ZINC000599228306    0.4300
     33 H33       -16.9354   -1.3224   58.0999 H       1  ZINC000599228306    0.0900
     34 H34       -17.0319   -2.5500   56.8145 H       1  ZINC000599228306    0.0700
     35 H35       -17.5841   -2.9402   58.4611 H       1  ZINC000599228306    0.0800
     36 H36       -15.0568    0.9216   61.5244 H       1  ZINC000599228306    0.0600
     37 H37       -13.2778    0.9810   61.5364 H       1  ZINC000599228306    0.0700
     38 H38       -14.1594    1.0252   59.9907 H       1  ZINC000599228306    0.0800
     39 H39       -14.0543   -2.5805   62.2914 H       1  ZINC000599228306    0.0700
     40 H40       -13.2165   -1.1246   62.8800 H       1  ZINC000599228306    0.0800
     41 H41       -14.9954   -1.1840   62.8680 H       1  ZINC000599228306    0.0700
     42 H42       -12.8383   -0.9351   59.1815 H       1  ZINC000599228306    0.0800
     43 H43       -11.9568   -0.9792   60.7272 H       1  ZINC000599228306    0.0700
     44 H44       -12.7947   -2.4352   60.1386 H       1  ZINC000599228306    0.0600
@<TRIPOS>BOND
     1     1     2    1
     2     1    27    1
     3     1    28    1
     4     1    29    1
     5     2     3    1
     6     3     4    2
     7     3     5    1
     8     5    25   ar
     9     5     6   ar
    10     6     7   ar
    11     6    30    1
    12     7     8    1
    13     7     9   ar
    14     9    10   ar
    15     9    31    1
    16    10    11    1
    17    10    25   ar
    18    11    12    2
    19    11    13    2
    20    11    14   am
    21    14    15    1
    22    14    32    1
    23    15    16    1
    24    15    17    1
    25    15    18    1
    26    17    33    1
    27    17    34    1
    28    17    35    1
    29    18    19    2
    30    18    20    1
    31    20    21    1
    32    21    22    1
    33    21    23    1
    34    21    24    1
    35    22    36    1
    36    22    37    1
    37    22    38    1
    38    23    39    1
    39    23    40    1
    40    23    41    1
    41    24    42    1
    42    24    43    1
    43    24    44    1
    44    25    26    1
@<TRIPOS>SUBSTRUCTURE
     1 ZINC000599228306        1 TEMP              0 ****  ****    0 ROOT


##########                                Name:    ZINC001193456967
##########                DOCK_Rotatable_Bonds:                   3
##########                         Heavy_Atoms:                  27
##########                    Molecular_Weight:             392.451
##########                DOCK_Rotatable_Bonds:                   3
##########                       Formal_Charge:           0.0300002
##########                     HBond_Acceptors:                   8
##########                        HBond_Donors:                   0
##########                         Heavy_Atoms:                  27
##########                          Grid_Score:          -32.011715
##########                     Grid_vdw_energy:          -32.120960
##########                      Grid_es_energy:            0.109246
##########           Internal_energy_repulsive:           37.102203

@<TRIPOS>MOLECULE
ZINC001193456967
 48 50 1 0 0
SMALL
USER_CHARGES


@<TRIPOS>ATOM
      1 C1         -9.0159   -3.5645   59.5628 C.3     1  ZINC001193456967   -0.1400
      2 C2        -10.1522   -3.6403   58.5759 C.ar    1  ZINC001193456967    0.0300
      3 C3        -10.6365   -4.8705   58.1726 C.ar    1  ZINC001193456967   -0.1400
      4 C4        -11.6789   -4.9400   57.2671 C.ar    1  ZINC001193456967    0.0300
      5 C5        -12.2371   -3.7794   56.7655 C.ar    1  ZINC001193456967   -0.6900
      6 S6        -13.5653   -3.8680   55.6110 S.o2    1  ZINC001193456967    2.7100
      7 O7        -13.8538   -5.2483   55.4363 O.2     1  ZINC001193456967   -0.9300
      8 O8        -14.5331   -2.9198   56.0395 O.2     1  ZINC001193456967   -0.9400
      9 N9        -12.9885   -3.3230   54.1575 N.am    1  ZINC001193456967   -1.0000
     10 C10       -11.8699   -3.9142   53.4007 C.3     1  ZINC001193456967    0.1100
     11 C11       -11.3353   -2.7599   52.5167 C.3     1  ZINC001193456967   -0.1200
     12 C12       -12.6483   -2.0271   52.1339 C.3     1  ZINC001193456967   -0.0500
     13 H13       -13.1296   -2.5156   51.2867 H       1  ZINC001193456967    0.1000
     14 C14       -12.3793   -0.5762   51.8277 C.ar    1  ZINC001193456967   -0.0800
     15 C15       -13.0839    0.0597   50.8225 C.ar    1  ZINC001193456967   -0.0800
     16 C16       -12.8380    1.3901   50.5408 C.ar    1  ZINC001193456967   -0.1500
     17 C17       -11.8860    2.0863   51.2661 C.ar    1  ZINC001193456967    0.1000
     18 F18       -11.6452    3.3871   50.9918 F       1  ZINC001193456967   -0.1400
     19 C19       -11.1813    1.4485   52.2728 C.ar    1  ZINC001193456967   -0.1500
     20 C20       -11.4322    0.1194   52.5560 C.ar    1  ZINC001193456967   -0.0800
     21 C21       -13.5115   -2.1735   53.4047 C.3     1  ZINC001193456967    0.1900
     22 C22       -14.9714   -2.4171   53.0169 C.3     1  ZINC001193456967   -0.1800
     23 C23       -13.4009   -0.9081   54.2576 C.3     1  ZINC001193456967   -0.1800
     24 C24       -11.7536   -2.5488   57.1698 C.ar    1  ZINC001193456967    0.0400
     25 C25       -10.7141   -2.4793   58.0780 C.ar    1  ZINC001193456967   -0.0600
     26 N26       -10.1964   -1.1619   58.5109 N.pl3   1  ZINC001193456967    0.0200
     27 O27        -9.8446   -0.9951   59.6650 O.2     1  ZINC001193456967   -0.1400
     28 O28       -10.1223   -0.2446   57.7130 O.2     1  ZINC001193456967   -0.1500
     29 H29        -9.4162   -3.4396   60.5689 H       1  ZINC001193456967    0.1100
     30 H30        -8.4319   -4.4836   59.5158 H       1  ZINC001193456967    0.0900
     31 H31        -8.3778   -2.7155   59.3177 H       1  ZINC001193456967    0.0800
     32 H32       -10.2003   -5.7774   58.5646 H       1  ZINC001193456967    0.1600
     33 H33       -12.0569   -5.9013   56.9515 H       1  ZINC001193456967    0.1600
     34 H34       -11.0929   -4.2615   54.0817 H       1  ZINC001193456967    0.0900
     35 H35       -12.2249   -4.7355   52.7783 H       1  ZINC001193456967    0.0700
     36 H36       -10.6745   -2.1057   53.0856 H       1  ZINC001193456967    0.0900
     37 H37       -10.8315   -3.1471   51.6311 H       1  ZINC001193456967    0.0900
     38 H38       -13.8264   -0.4836   50.2570 H       1  ZINC001193456967    0.1400
     39 H39       -13.3882    1.8865   49.7551 H       1  ZINC001193456967    0.1400
     40 H40       -10.4382    1.9906   52.8389 H       1  ZINC001193456967    0.1400
     41 H41       -10.8829   -0.3783   53.3414 H       1  ZINC001193456967    0.1300
     42 H42       -15.0428   -3.3305   52.4264 H       1  ZINC001193456967    0.0700
     43 H43       -15.5747   -2.5195   53.9190 H       1  ZINC001193456967    0.0600
     44 H44       -15.3365   -1.5749   52.4292 H       1  ZINC001193456967    0.0800
     45 H45       -13.6473   -0.0375   53.6497 H       1  ZINC001193456967    0.0800
     46 H46       -14.0939   -0.9734   55.0963 H       1  ZINC001193456967    0.0900
     47 H47       -12.3826   -0.8117   54.6343 H       1  ZINC001193456967    0.0700
     48 H48       -12.1901   -1.6419   56.7781 H       1  ZINC001193456967    0.1600
@<TRIPOS>BOND
     1     1     2    1
     2     1    29    1
     3     1    30    1
     4     1    31    1
     5     2    25   ar
     6     2     3   ar
     7     3     4   ar
     8     3    32    1
     9     4     5   ar
    10     4    33    1
    11     5     6    1
    12     5    24   ar
    13     6     7    2
    14     6     8    2
    15     6     9   am
    16     9    21    1
    17     9    10    1
    18    10    11    1
    19    10    34    1
    20    10    35    1
    21    11    12    1
    22    11    36    1
    23    11    37    1
    24    12    13    1
    25    12    14    1
    26    12    21    1
    27    14    20   ar
    28    14    15   ar
    29    15    16   ar
    30    15    38    1
    31    16    17   ar
    32    16    39    1
    33    17    18    1
    34    17    19   ar
    35    19    20   ar
    36    19    40    1
    37    20    41    1
    38    21    22    1
    39    21    23    1
    40    22    42    1
    41    22    43    1
    42    22    44    1
    43    23    45    1
    44    23    46    1
    45    23    47    1
    46    24    25   ar
    47    24    48    1
    48    25    26    1
    49    26    27    2
    50    26    28    2
@<TRIPOS>SUBSTRUCTURE
     1 ZINC001193456967        1 TEMP              0 ****  ****    0 ROOT


##########                                Name:    ZINC000867639366
##########                DOCK_Rotatable_Bonds:                   6
##########                         Heavy_Atoms:                  25
##########                    Molecular_Weight:             388.509
##########                DOCK_Rotatable_Bonds:                   6
##########                       Formal_Charge:          0.00999961
##########                     HBond_Acceptors:                   9
##########                        HBond_Donors:                   1
##########                         Heavy_Atoms:                  25
##########                          Grid_Score:          -31.992050
##########                     Grid_vdw_energy:          -29.884092
##########                      Grid_es_energy:           -2.107957
##########           Internal_energy_repulsive:           38.831146

@<TRIPOS>MOLECULE
ZINC000867639366
 49 51 1 0 0
SMALL
USER_CHARGES


@<TRIPOS>ATOM
      1 C1        -11.4530   -2.3448   54.9377 C.3     1  ZINC000867639366    0.0300
      2 O2        -11.3951   -2.0368   56.3318 O.3     1  ZINC000867639366   -0.3800
      3 C3        -10.9518   -3.1222   57.1489 C.3     1  ZINC000867639366    0.0800
      4 H4        -10.4763   -3.8777   56.5235 H       1  ZINC000867639366    0.0800
      5 C5        -12.1506   -3.7392   57.8730 C.3     1  ZINC000867639366   -0.1400
      6 C6        -12.8390   -2.6708   58.7253 C.3     1  ZINC000867639366   -0.1200
      7 C7        -11.8546   -2.1498   59.7772 C.3     1  ZINC000867639366    0.1500
      8 H8        -11.6033   -2.9517   60.4713 H       1  ZINC000867639366    0.0800
      9 C9        -12.4903   -0.9883   60.5439 C.3     1  ZINC000867639366   -0.1900
     10 N10       -10.6371   -1.6872   59.0972 N.am    1  ZINC000867639366   -0.9800
     11 S11       -10.0546   -0.1589   59.3570 S.o2    1  ZINC000867639366    2.6900
     12 O12        -8.8061   -0.0853   58.6823 O.2     1  ZINC000867639366   -0.9500
     13 O13       -11.1318    0.7306   59.0976 O.2     1  ZINC000867639366   -0.9400
     14 C14        -9.6991   -0.0216   61.0773 C.ar    1  ZINC000867639366   -0.6300
     15 C15       -10.0066    1.1430   61.7558 C.ar    1  ZINC000867639366   -0.0500
     16 C16        -9.7277    1.2507   63.1055 C.ar    1  ZINC000867639366   -0.0400
     17 C17        -9.1420    0.1938   63.7768 C.ar    1  ZINC000867639366   -0.6300
     18 S18        -8.7861    0.3312   65.4969 S.o2    1  ZINC000867639366    2.7000
     19 O19        -9.9887    0.7570   66.1227 O.2     1  ZINC000867639366   -0.9400
     20 O20        -8.0995   -0.8585   65.8609 O.2     1  ZINC000867639366   -0.9500
     21 N21        -7.7019    1.5702   65.6757 N.am    1  ZINC000867639366   -1.0800
     22 C22        -6.3974    1.5033   65.0126 C.3     1  ZINC000867639366    0.0800
     23 C23        -5.2896    2.4181   65.5388 C.3     1  ZINC000867639366   -0.1800
     24 C24        -5.2305    0.9128   65.8068 C.3     1  ZINC000867639366   -0.1900
     25 C25        -8.8359   -0.9713   63.0986 C.ar    1  ZINC000867639366   -0.0400
     26 C26        -9.1183   -1.0805   61.7498 C.ar    1  ZINC000867639366   -0.0400
     27 C27        -9.9454   -2.6065   58.1823 C.3     1  ZINC000867639366    0.1200
     28 H28       -10.4607   -2.6273   54.5864 H       1  ZINC000867639366    0.0400
     29 H29       -12.1446   -3.1718   54.7767 H       1  ZINC000867639366    0.0400
     30 H30       -11.7982   -1.4700   54.3865 H       1  ZINC000867639366    0.0900
     31 H31       -12.8564   -4.1292   57.1396 H       1  ZINC000867639366    0.0700
     32 H32       -11.8085   -4.5510   58.5149 H       1  ZINC000867639366    0.0700
     33 H33       -13.1594   -1.8471   58.0874 H       1  ZINC000867639366    0.0800
     34 H34       -13.7064   -3.1051   59.2225 H       1  ZINC000867639366    0.0800
     35 H35       -13.3168   -1.3613   61.1488 H       1  ZINC000867639366    0.0700
     36 H36       -11.7439   -0.5291   61.1920 H       1  ZINC000867639366    0.0600
     37 H37       -12.8631   -0.2471   59.8370 H       1  ZINC000867639366    0.1000
     38 H38       -10.4641    1.9688   61.2313 H       1  ZINC000867639366    0.1600
     39 H39        -9.9672    2.1608   63.6353 H       1  ZINC000867639366    0.1500
     40 H40        -7.9306    2.3402   66.2195 H       1  ZINC000867639366    0.4200
     41 H41        -6.4245    1.3109   63.9399 H       1  ZINC000867639366    0.1400
     42 H42        -4.5878    2.8279   64.8125 H       1  ZINC000867639366    0.1100
     43 H43        -5.5315    3.0696   66.3785 H       1  ZINC000867639366    0.1000
     44 H44        -5.4336    0.5742   66.8228 H       1  ZINC000867639366    0.1000
     45 H45        -4.4899    0.3324   65.2568 H       1  ZINC000867639366    0.1000
     46 H46        -8.3787   -1.7972   63.6232 H       1  ZINC000867639366    0.1500
     47 H47        -8.8791   -1.9907   61.2200 H       1  ZINC000867639366    0.1500
     48 H48        -9.5383   -3.4457   58.7463 H       1  ZINC000867639366    0.0900
     49 H49        -9.1380   -2.0785   57.6750 H       1  ZINC000867639366    0.1000
@<TRIPOS>BOND
     1     1     2    1
     2     1    28    1
     3     1    29    1
     4     1    30    1
     5     2     3    1
     6     3     4    1
     7     3    27    1
     8     3     5    1
     9     5     6    1
    10     5    31    1
    11     5    32    1
    12     6     7    1
    13     6    33    1
    14     6    34    1
    15     7     8    1
    16     7     9    1
    17     7    10    1
    18     9    35    1
    19     9    36    1
    20     9    37    1
    21    10    11   am
    22    10    27    1
    23    11    12    2
    24    11    13    2
    25    11    14    1
    26    14    26   ar
    27    14    15   ar
    28    15    16   ar
    29    15    38    1
    30    16    17   ar
    31    16    39    1
    32    17    18    1
    33    17    25   ar
    34    18    19    2
    35    18    20    2
    36    18    21   am
    37    21    22    1
    38    21    40    1
    39    22    24    1
    40    22    23    1
    41    22    41    1
    42    23    24    1
    43    23    42    1
    44    23    43    1
    45    24    44    1
    46    24    45    1
    47    25    26   ar
    48    25    46    1
    49    26    47    1
    50    27    48    1
    51    27    49    1
@<TRIPOS>SUBSTRUCTURE
     1 ZINC000867639366        1 TEMP              0 ****  ****    0 ROOT


##########                                Name:    ZINC000286156371
##########                DOCK_Rotatable_Bonds:                   7
##########                         Heavy_Atoms:                  25
##########                    Molecular_Weight:             350.418
##########                DOCK_Rotatable_Bonds:                   7
##########                       Formal_Charge:          0.00999908
##########                     HBond_Acceptors:                   8
##########                        HBond_Donors:                   2
##########                         Heavy_Atoms:                  25
##########                          Grid_Score:          -31.958557
##########                     Grid_vdw_energy:          -30.917301
##########                      Grid_es_energy:           -1.041255
##########           Internal_energy_repulsive:           24.089262

@<TRIPOS>MOLECULE
ZINC000286156371
 51 53 1 0 0
SMALL
USER_CHARGES


@<TRIPOS>ATOM
      1 C1         -2.1933    2.9222   45.2517 C.3     1  <0>        -0.1800
      2 C2         -1.2707    1.8232   45.7827 C.3     1  <0>         0.1400
      3 C3         -1.5779    0.5080   45.0640 C.3     1  <0>        -0.1800
      4 C4          0.1866    2.2144   45.5297 C.3     1  <0>        -0.1400
      5 O5         -1.4867    1.6573   47.2089 O.3     1  <0>        -0.3600
      6 C6         -0.5422    0.9882   47.8965 C.2     1  <0>         0.6800
      7 O7         -0.1174   -0.0689   47.4738 O.2     1  <0>        -0.5600
      8 N8         -0.0678    1.4908   49.0535 N.am    1  <0>        -0.5800
      9 C9          0.9618    0.8657   49.9037 C.3     1  <0>         0.0700
     10 C10         1.5832    2.0392   50.7017 C.3     1  <0>         0.0900
     11 H11         2.0178    1.6882   51.6376 H       1  <0>         0.0900
     12 O12         2.5549    2.7340   49.9174 O.3     1  <0>        -0.5500
     13 C13         0.3401    2.9295   50.9651 C.3     1  <0>        -0.1200
     14 C14        -0.4865    2.7565   49.6735 C.3     1  <0>         0.1500
     15 H15        -0.2940    3.5884   48.9961 H       1  <0>         0.1100
     16 C16        -1.9546    2.6976   50.0086 C.2     1  <0>         0.5200
     17 O17        -2.7798    3.0045   49.1744 O.2     1  <0>        -0.4900
     18 N18        -2.3505    2.3038   51.2353 N.am    1  <0>        -0.6300
     19 C19        -3.7159    2.2474   51.5465 C.2     1  <0>         0.3000
     20 N20        -4.6290    1.5669   50.8910 N.2     1  <0>        -0.3200
     21 N21        -5.8589    1.7736   51.5196 N.pl3   1  <0>        -0.3600
     22 C22        -7.1595    1.2135   51.1400 C.3     1  <0>         0.1400
     23 C23        -8.1195    1.3456   52.3269 C.3     1  <0>        -0.1400
     24 C24        -8.1000    2.7871   52.8440 C.3     1  <0>        -0.1300
     25 C25        -6.7453    3.0665   53.5080 C.3     1  <0>        -0.0600
     26 C26        -5.6573    2.5999   52.5724 C.2     1  <0>         0.0900
     27 C27        -4.3459    2.9041   52.6180 C.2     1  <0>        -0.2600
     28 H28        -3.2316    2.6435   45.4319 H       1  <0>         0.0900
     29 H29        -1.9745    3.8592   45.7637 H       1  <0>         0.0600
     30 H30        -2.0312    3.0468   44.1810 H       1  <0>         0.0700
     31 H31        -1.4158    0.6325   43.9933 H       1  <0>         0.0700
     32 H32        -0.9206   -0.2749   45.4422 H       1  <0>         0.0600
     33 H33        -2.6162    0.2293   45.2442 H       1  <0>         0.0900
     34 H34         0.4055    3.1514   46.0418 H       1  <0>         0.0700
     35 H35         0.8438    1.4315   45.9080 H       1  <0>         0.0700
     36 H36         0.3487    2.3390   44.4590 H       1  <0>         0.0800
     37 H37         0.5065    0.1445   50.5825 H       1  <0>         0.0800
     38 H38         1.7200    0.3822   49.2879 H       1  <0>         0.0900
     39 H39         3.0399    3.4142   50.4045 H       1  <0>         0.3900
     40 H40        -0.2140    2.5713   51.8328 H       1  <0>         0.1000
     41 H41         0.6327    3.9713   51.0963 H       1  <0>         0.1100
     42 H42        -1.6904    2.0595   51.9028 H       1  <0>         0.4200
     43 H43        -7.5575    1.7608   50.2854 H       1  <0>         0.0800
     44 H44        -7.0423    0.1615   50.8801 H       1  <0>         0.0900
     45 H45        -9.1294    1.0882   52.0076 H       1  <0>         0.0900
     46 H46        -7.8074    0.6700   53.1233 H       1  <0>         0.0800
     47 H47        -8.2461    3.4748   52.0111 H       1  <0>         0.0700
     48 H48        -8.8981    2.9230   53.5739 H       1  <0>         0.0800
     49 H49        -6.6391    4.1357   53.6914 H       1  <0>         0.0900
     50 H50        -6.6783    2.5226   54.4503 H       1  <0>         0.0900
     51 H51        -3.8650    3.5405   53.3461 H       1  <0>         0.1700
@<TRIPOS>BOND
     1     1     2    1
     2     1    28    1
     3     1    29    1
     4     1    30    1
     5     2     3    1
     6     2     4    1
     7     2     5    1
     8     3    31    1
     9     3    32    1
    10     3    33    1
    11     4    34    1
    12     4    35    1
    13     4    36    1
    14     5     6    1
    15     6     7    2
    16     6     8   am
    17     8    14    1
    18     8     9    1
    19     9    10    1
    20     9    37    1
    21     9    38    1
    22    10    11    1
    23    10    12    1
    24    10    13    1
    25    12    39    1
    26    13    14    1
    27    13    40    1
    28    13    41    1
    29    14    15    1
    30    14    16    1
    31    16    17    2
    32    16    18   am
    33    18    19    1
    34    18    42    1
    35    19    27    1
    36    19    20    2
    37    20    21    1
    38    21    26    1
    39    21    22    1
    40    22    23    1
    41    22    43    1
    42    22    44    1
    43    23    24    1
    44    23    45    1
    45    23    46    1
    46    24    25    1
    47    24    47    1
    48    24    48    1
    49    25    26    1
    50    25    49    1
    51    25    50    1
    52    26    27    2
    53    27    51    1
@<TRIPOS>SUBSTRUCTURE
     1 <0>         1 TEMP              0 ****  ****    0 ROOT


##########                                Name:    ZINC000854704989
##########                DOCK_Rotatable_Bonds:                   5
##########                         Heavy_Atoms:                  22
##########                    Molecular_Weight:             365.227
##########                DOCK_Rotatable_Bonds:                   5
##########                       Formal_Charge:        -1.78814e-07
##########                     HBond_Acceptors:                   5
##########                        HBond_Donors:                   1
##########                         Heavy_Atoms:                  22
##########                          Grid_Score:          -31.939951
##########                     Grid_vdw_energy:          -30.210106
##########                      Grid_es_energy:           -1.729845
##########           Internal_energy_repulsive:            6.362576

@<TRIPOS>MOLECULE
ZINC000854704989
 39 41 1 0 0
SMALL
USER_CHARGES


@<TRIPOS>ATOM
      1 O1        -11.6692    0.0795   60.9843 O.2     1  ZINC000854704989   -0.5300
      2 C2        -10.6547   -0.5891   60.9488 C.2     1  ZINC000854704989    0.5700
      3 N3         -9.6373   -0.3149   61.7892 N.am    1  ZINC000854704989   -0.7300
      4 C4         -9.7516    0.7927   62.7412 C.3     1  ZINC000854704989    0.2000
      5 C5         -9.0140    0.4442   64.0083 C.2     1  ZINC000854704989   -0.0500
      6 C6         -8.4017    1.3075   64.8530 C.2     1  ZINC000854704989   -0.1700
      7 C7         -7.8721    0.4754   65.8674 C.2     1  ZINC000854704989    0.0000
      8 Br8        -6.8841    1.0251   67.3831 Br      1  ZINC000854704989    0.0600
      9 N9         -8.2006   -0.7445   65.5501 N.2     1  ZINC000854704989   -0.3200
     10 O10        -8.8397   -0.7806   64.5242 O.3     1  ZINC000854704989    0.1300
     11 C11       -10.5392   -1.7069   59.9881 C.ar    1  ZINC000854704989   -0.1300
     12 C12        -9.4852   -2.6156   60.0935 C.ar    1  ZINC000854704989   -0.0900
     13 C13        -9.3835   -3.6568   59.1940 C.ar    1  ZINC000854704989   -0.1200
     14 C14       -10.3230   -3.8008   58.1889 C.ar    1  ZINC000854704989   -0.0900
     15 C15       -11.3705   -2.9032   58.0787 C.ar    1  ZINC000854704989   -0.0800
     16 C16       -12.3895   -3.0680   56.9806 C.3     1  ZINC000854704989   -0.0800
     17 H17       -13.1400   -2.2815   57.0593 H       1  ZINC000854704989    0.0900
     18 C18       -13.0658   -4.4361   57.1109 C.3     1  ZINC000854704989   -0.1100
     19 C19       -14.0422   -4.6237   55.9456 C.3     1  ZINC000854704989   -0.1600
     20 C20       -13.2827   -4.4745   54.6247 C.3     1  ZINC000854704989    0.0600
     21 O21       -12.6523   -3.1928   54.5815 O.3     1  ZINC000854704989   -0.3800
     22 C22       -11.6941   -2.9772   55.6197 C.3     1  ZINC000854704989    0.0700
     23 C23       -11.4870   -1.8613   58.9750 C.ar    1  ZINC000854704989   -0.0500
     24 H24        -8.8292   -0.8509   61.7635 H       1  ZINC000854704989    0.4000
     25 H25        -9.3191    1.6930   62.3048 H       1  ZINC000854704989    0.1100
     26 H26       -10.8029    0.9685   62.9694 H       1  ZINC000854704989    0.1000
     27 H27        -8.3332    2.3822   64.7714 H       1  ZINC000854704989    0.1900
     28 H28        -8.7507   -2.5038   60.8774 H       1  ZINC000854704989    0.1200
     29 H29        -8.5685   -4.3608   59.2745 H       1  ZINC000854704989    0.1300
     30 H30       -10.2386   -4.6172   57.4868 H       1  ZINC000854704989    0.1300
     31 H31       -12.3097   -5.2208   57.0831 H       1  ZINC000854704989    0.0700
     32 H32       -13.6100   -4.4856   58.0540 H       1  ZINC000854704989    0.0700
     33 H33       -14.4872   -5.6173   55.9996 H       1  ZINC000854704989    0.0800
     34 H34       -14.8263   -3.8688   56.0023 H       1  ZINC000854704989    0.0700
     35 H35       -12.5254   -5.2549   54.5507 H       1  ZINC000854704989    0.0500
     36 H36       -13.9804   -4.5646   53.7921 H       1  ZINC000854704989    0.1000
     37 H37       -11.2478   -1.9896   55.5031 H       1  ZINC000854704989    0.1000
     38 H38       -10.9155   -3.7376   55.5595 H       1  ZINC000854704989    0.0500
     39 H39       -12.3052   -1.1616   58.8882 H       1  ZINC000854704989    0.1400
@<TRIPOS>BOND
     1     1     2    2
     2     2     3   am
     3     2    11    1
     4     3     4    1
     5     3    24    1
     6     4     5    1
     7     4    25    1
     8     4    26    1
     9     5    10    1
    10     5     6    2
    11     6     7    1
    12     6    27    1
    13     7     8    1
    14     7     9    2
    15     9    10    1
    16    11    23   ar
    17    11    12   ar
    18    12    13   ar
    19    12    28    1
    20    13    14   ar
    21    13    29    1
    22    14    15   ar
    23    14    30    1
    24    15    16    1
    25    15    23   ar
    26    16    17    1
    27    16    22    1
    28    16    18    1
    29    18    19    1
    30    18    31    1
    31    18    32    1
    32    19    20    1
    33    19    33    1
    34    19    34    1
    35    20    21    1
    36    20    35    1
    37    20    36    1
    38    21    22    1
    39    22    37    1
    40    22    38    1
    41    23    39    1
@<TRIPOS>SUBSTRUCTURE
     1 ZINC000854704989        1 TEMP              0 ****  ****    0 ROOT


##########                                Name:    ZINC000464706598
##########                DOCK_Rotatable_Bonds:                   4
##########                         Heavy_Atoms:                  26
##########                    Molecular_Weight:             412.286
##########                DOCK_Rotatable_Bonds:                   4
##########                       Formal_Charge:           0.0100001
##########                     HBond_Acceptors:                   5
##########                        HBond_Donors:                   0
##########                         Heavy_Atoms:                  26
##########                          Grid_Score:          -31.935165
##########                     Grid_vdw_energy:          -31.799314
##########                      Grid_es_energy:           -0.135850
##########           Internal_energy_repulsive:           58.251907

@<TRIPOS>MOLECULE
ZINC000464706598
 44 47 1 0 0
SMALL
USER_CHARGES


@<TRIPOS>ATOM
      1 O1        -12.1748   -2.5262   55.2391 O.2     1  ZINC000464706598   -0.5000
      2 C2        -12.0814   -1.9811   54.1561 C.2     1  ZINC000464706598    0.5900
      3 C3        -11.0844   -0.9148   53.9510 C.2     1  ZINC000464706598   -0.2800
      4 C4         -9.9524   -0.9918   53.1641 C.2     1  ZINC000464706598    0.1300
      5 N5         -9.3206    0.1927   53.2522 N.pl3   1  ZINC000464706598   -0.3100
      6 C6         -8.1262    0.5345   52.6031 C.ar    1  ZINC000464706598    0.1700
      7 C7         -7.5485   -0.3478   51.6999 C.ar    1  ZINC000464706598   -0.1300
      8 C8         -6.3719   -0.0085   51.0613 C.ar    1  ZINC000464706598   -0.0600
      9 C9         -5.7685    1.2093   51.3212 C.ar    1  ZINC000464706598   -0.1000
     10 Br10       -4.1572    1.6703   50.4455 Br      1  ZINC000464706598   -0.0400
     11 C11        -6.3424    2.0905   52.2204 C.ar    1  ZINC000464706598   -0.0700
     12 C12        -7.5217    1.7582   52.8578 C.ar    1  ZINC000464706598   -0.1100
     13 N13       -10.0578    1.0260   54.1010 N.2     1  ZINC000464706598   -0.2800
     14 C14       -11.1115    0.3794   54.5181 C.2     1  ZINC000464706598    0.0700
     15 N15       -12.8858   -2.3557   53.1416 N.am    1  ZINC000464706598   -0.6100
     16 C16       -12.7871   -1.7151   51.8205 C.3     1  ZINC000464706598    0.0400
     17 C17       -14.1918   -1.2786   51.3888 C.3     1  ZINC000464706598    0.0500
     18 O18       -15.0826   -2.3922   51.4894 O.3     1  ZINC000464706598   -0.3700
     19 C19       -15.2393   -2.8981   52.8173 C.3     1  ZINC000464706598    0.0500
     20 C20       -13.8844   -3.4216   53.3207 C.3     1  ZINC000464706598    0.1600
     21 H21       -13.5956   -4.3028   52.7479 H       1  ZINC000464706598    0.0900
     22 C22       -13.9886   -3.7775   54.7813 C.ar    1  ZINC000464706598   -0.0500
     23 C23       -14.6473   -2.9312   55.6536 C.ar    1  ZINC000464706598   -0.1000
     24 C24       -14.7430   -3.2576   56.9934 C.ar    1  ZINC000464706598   -0.1100
     25 C25       -14.1803   -4.4305   57.4609 C.ar    1  ZINC000464706598   -0.1200
     26 C26       -13.5224   -5.2773   56.5884 C.ar    1  ZINC000464706598   -0.1100
     27 C27       -13.4306   -4.9530   55.2478 C.ar    1  ZINC000464706598   -0.1000
     28 H28        -9.6328   -1.8456   52.5853 H       1  ZINC000464706598    0.1900
     29 H29        -8.0186   -1.2988   51.4972 H       1  ZINC000464706598    0.1400
     30 H30        -5.9220   -0.6945   50.3588 H       1  ZINC000464706598    0.1500
     31 H31        -5.8697    3.0405   52.4213 H       1  ZINC000464706598    0.1500
     32 H32        -7.9696    2.4465   53.5593 H       1  ZINC000464706598    0.1500
     33 H33       -11.8686    0.7638   55.1853 H       1  ZINC000464706598    0.2100
     34 H34       -12.1349   -0.8440   51.8827 H       1  ZINC000464706598    0.1200
     35 H35       -12.3849   -2.4248   51.0976 H       1  ZINC000464706598    0.0800
     36 H36       -14.5390   -0.4749   52.0381 H       1  ZINC000464706598    0.0600
     37 H37       -14.1630   -0.9276   50.3573 H       1  ZINC000464706598    0.1100
     38 H38       -15.5902   -2.1004   53.4719 H       1  ZINC000464706598    0.0600
     39 H39       -15.9640   -3.7123   52.8136 H       1  ZINC000464706598    0.1100
     40 H40       -15.0869   -2.0148   55.2884 H       1  ZINC000464706598    0.1100
     41 H41       -15.2569   -2.5961   57.6751 H       1  ZINC000464706598    0.1200
     42 H42       -14.2544   -4.6852   58.5078 H       1  ZINC000464706598    0.1200
     43 H43       -13.0825   -6.1935   56.9537 H       1  ZINC000464706598    0.1200
     44 H44       -12.9166   -5.6145   54.5662 H       1  ZINC000464706598    0.1100
@<TRIPOS>BOND
     1     1     2    2
     2     2     3    1
     3     2    15   am
     4     3    14    1
     5     3     4    2
     6     4     5    1
     7     4    28    1
     8     5     6    1
     9     5    13    1
    10     6    12   ar
    11     6     7   ar
    12     7     8   ar
    13     7    29    1
    14     8     9   ar
    15     8    30    1
    16     9    10    1
    17     9    11   ar
    18    11    12   ar
    19    11    31    1
    20    12    32    1
    21    13    14    2
    22    14    33    1
    23    15    20    1
    24    15    16    1
    25    16    17    1
    26    16    34    1
    27    16    35    1
    28    17    18    1
    29    17    36    1
    30    17    37    1
    31    18    19    1
    32    19    20    1
    33    19    38    1
    34    19    39    1
    35    20    21    1
    36    20    22    1
    37    22    27   ar
    38    22    23   ar
    39    23    24   ar
    40    23    40    1
    41    24    25   ar
    42    24    41    1
    43    25    26   ar
    44    25    42    1
    45    26    27   ar
    46    26    43    1
    47    27    44    1
@<TRIPOS>SUBSTRUCTURE
     1 ZINC000464706598        1 TEMP              0 ****  ****    0 ROOT


##########                                Name:    ZINC000446721380
##########                DOCK_Rotatable_Bonds:                   8
##########                         Heavy_Atoms:                  26
##########                    Molecular_Weight:             419.318
##########                DOCK_Rotatable_Bonds:                   8
##########                       Formal_Charge:           0.0199992
##########                     HBond_Acceptors:                   5
##########                        HBond_Donors:                   2
##########                         Heavy_Atoms:                  26
##########                          Grid_Score:          -31.929470
##########                     Grid_vdw_energy:          -31.866350
##########                      Grid_es_energy:           -0.063119
##########           Internal_energy_repulsive:            9.144743

@<TRIPOS>MOLECULE
ZINC000446721380
 49 51 1 0 0
SMALL
USER_CHARGES


@<TRIPOS>ATOM
      1 C1        -13.2589   -4.2017   54.5108 C.3     1  ZINC000446721380   -0.1200
      2 C2        -12.3355   -3.8862   55.6593 C.ar    1  ZINC000446721380   -0.0300
      3 C3        -12.1384   -4.8165   56.6627 C.ar    1  ZINC000446721380   -0.1600
      4 C4        -11.2917   -4.5299   57.7179 C.ar    1  ZINC000446721380   -0.0500
      5 C5        -10.6406   -3.3130   57.7716 C.ar    1  ZINC000446721380   -0.1500
      6 C6         -9.7177   -3.0016   58.9215 C.3     1  ZINC000446721380    0.1900
      7 N7        -10.4987   -2.4868   60.0489 N.am    1  ZINC000446721380   -0.7300
      8 C8         -9.9650   -1.5628   60.8723 C.2     1  ZINC000446721380    0.7100
      9 O9         -8.8359   -1.1554   60.6785 O.2     1  ZINC000446721380   -0.5700
     10 N10       -10.6829   -1.0903   61.9104 N.am    1  ZINC000446721380   -0.6900
     11 C11       -10.1286   -0.1306   62.7657 C.ar    1  ZINC000446721380    0.2000
     12 C12        -8.9756   -0.4206   63.4821 C.ar    1  ZINC000446721380   -0.1200
     13 C13        -8.4306    0.5288   64.3251 C.ar    1  ZINC000446721380   -0.0800
     14 C14        -9.0321    1.7667   64.4558 C.ar    1  ZINC000446721380   -0.1300
     15 C15       -10.1812    2.0592   63.7439 C.ar    1  ZINC000446721380   -0.0700
     16 C16       -10.7282    1.1163   62.8949 C.ar    1  ZINC000446721380   -0.1300
     17 Br17      -12.2990    1.5169   61.9214 Br      1  ZINC000446721380   -0.0500
     18 C18       -10.8367   -2.3776   56.7656 C.ar    1  ZINC000446721380    0.1500
     19 O19       -10.1969   -1.1797   56.8160 O.3     1  ZINC000446721380   -0.3100
     20 C20       -10.9841   -0.0377   57.1594 C.3     1  ZINC000446721380    0.0700
     21 C21       -10.1433    1.2299   56.9942 C.3     1  ZINC000446721380   -0.1200
     22 H22       -10.6787    2.0952   57.3848 H       1  ZINC000446721380    0.1000
     23 C23        -9.7760    1.4462   55.5059 C.3     1  ZINC000446721380   -0.1500
     24 C24        -8.3045    1.9239   55.6008 C.3     1  ZINC000446721380    0.0500
     25 O25        -7.7653    1.1399   56.6866 O.3     1  ZINC000446721380   -0.3800
     26 C26        -8.7841    1.0716   57.7027 C.3     1  ZINC000446721380    0.0500
     27 C27       -11.6822   -2.6696   55.7055 C.ar    1  ZINC000446721380   -0.2100
     28 H28       -12.6938   -4.6809   53.7114 H       1  ZINC000446721380    0.0800
     29 H29       -14.0467   -4.8734   54.8521 H       1  ZINC000446721380    0.0700
     30 H30       -13.7041   -3.2790   54.1385 H       1  ZINC000446721380    0.0700
     31 H31       -12.6469   -5.7684   56.6227 H       1  ZINC000446721380    0.1300
     32 H32       -11.1397   -5.2582   58.5007 H       1  ZINC000446721380    0.1300
     33 H33        -9.1964   -3.9095   59.2251 H       1  ZINC000446721380    0.0800
     34 H34        -8.9903   -2.2517   58.6107 H       1  ZINC000446721380    0.0800
     35 H35       -11.3999   -2.8108   60.2028 H       1  ZINC000446721380    0.4000
     36 H36       -11.5838   -1.4152   62.0650 H       1  ZINC000446721380    0.4100
     37 H37        -8.5052   -1.3874   63.3810 H       1  ZINC000446721380    0.1500
     38 H38        -7.5337    0.3034   64.8830 H       1  ZINC000446721380    0.1300
     39 H39        -8.6039    2.5069   65.1154 H       1  ZINC000446721380    0.1300
     40 H40       -10.6492    3.0269   63.8487 H       1  ZINC000446721380    0.1400
     41 H41       -11.8533    0.0149   56.5036 H       1  ZINC000446721380    0.0700
     42 H42       -11.3147   -0.1222   58.1946 H       1  ZINC000446721380    0.0700
     43 H43        -9.8466    0.5125   54.9480 H       1  ZINC000446721380    0.0800
     44 H44       -10.4062    2.2143   55.0574 H       1  ZINC000446721380    0.0900
     45 H45        -7.7719    1.7129   54.6735 H       1  ZINC000446721380    0.1000
     46 H46        -8.2606    2.9873   55.8364 H       1  ZINC000446721380    0.0600
     47 H47        -8.6428    1.8765   58.4240 H       1  ZINC000446721380    0.0600
     48 H48        -8.7396    0.1067   58.2078 H       1  ZINC000446721380    0.0900
     49 H49       -11.8364   -1.9432   54.9213 H       1  ZINC000446721380    0.1300
@<TRIPOS>BOND
     1     1     2    1
     2     1    28    1
     3     1    29    1
     4     1    30    1
     5     2    27   ar
     6     2     3   ar
     7     3     4   ar
     8     3    31    1
     9     4     5   ar
    10     4    32    1
    11     5     6    1
    12     5    18   ar
    13     6     7    1
    14     6    33    1
    15     6    34    1
    16     7     8   am
    17     7    35    1
    18     8     9    2
    19     8    10   am
    20    10    11    1
    21    10    36    1
    22    11    16   ar
    23    11    12   ar
    24    12    13   ar
    25    12    37    1
    26    13    14   ar
    27    13    38    1
    28    14    15   ar
    29    14    39    1
    30    15    16   ar
    31    15    40    1
    32    16    17    1
    33    18    19    1
    34    18    27   ar
    35    19    20    1
    36    20    21    1
    37    20    41    1
    38    20    42    1
    39    21    22    1
    40    21    26    1
    41    21    23    1
    42    23    24    1
    43    23    43    1
    44    23    44    1
    45    24    25    1
    46    24    45    1
    47    24    46    1
    48    25    26    1
    49    26    47    1
    50    26    48    1
    51    27    49    1
@<TRIPOS>SUBSTRUCTURE
     1 ZINC000446721380        1 TEMP              0 ****  ****    0 ROOT


##########                                Name:    ZINC001176298561
##########                DOCK_Rotatable_Bonds:                   6
##########                         Heavy_Atoms:                  23
##########                    Molecular_Weight:             337.781
##########                DOCK_Rotatable_Bonds:                   6
##########                       Formal_Charge:          -0.0100003
##########                     HBond_Acceptors:                   7
##########                        HBond_Donors:                   2
##########                         Heavy_Atoms:                  23
##########                          Grid_Score:          -31.898468
##########                     Grid_vdw_energy:          -29.704468
##########                      Grid_es_energy:           -2.194000
##########           Internal_energy_repulsive:           13.643767

@<TRIPOS>MOLECULE
ZINC001176298561
 40 41 1 0 0
SMALL
USER_CHARGES


@<TRIPOS>ATOM
      1 C1        -13.0067    0.3022   53.8070 C.3     1  ZINC001176298561   -0.1700
      2 C2        -12.2209   -0.8235   54.4826 C.3     1  ZINC001176298561    0.1100
      3 N3        -11.4305   -1.5385   53.4775 N.am    1  ZINC001176298561   -0.6100
      4 C4        -10.8612   -0.8114   52.3402 C.3     1  ZINC001176298561    0.0900
      5 C5         -9.6240   -0.0363   52.7981 C.3     1  ZINC001176298561   -0.1800
      6 C6        -11.2270   -2.8652   53.5991 C.2     1  ZINC001176298561    0.5600
      7 O7        -10.5712   -3.4585   52.7652 O.2     1  ZINC001176298561   -0.5300
      8 C8        -11.8016   -3.5992   54.7471 C.ar    1  ZINC001176298561   -0.0600
      9 C9        -13.0327   -4.2441   54.6200 C.ar    1  ZINC001176298561   -0.1900
     10 C10       -13.5679   -4.9297   55.6950 C.ar    1  ZINC001176298561    0.1400
     11 F11       -14.7595   -5.5538   55.5702 F       1  ZINC001176298561   -0.1300
     12 C12       -12.8857   -4.9787   56.8982 C.ar    1  ZINC001176298561   -0.1800
     13 C13       -11.6589   -4.3390   57.0329 C.ar    1  ZINC001176298561    0.2400
     14 N14       -10.9739   -4.3915   58.2491 N.pl3   1  ZINC001176298561   -0.6700
     15 C15       -10.4943   -3.2133   58.8339 C.2     1  ZINC001176298561    0.0400
     16 C16       -11.3144   -2.1272   58.9750 C.2     1  ZINC001176298561   -0.0300
     17 C17       -10.8088   -0.9589   59.5649 C.2     1  ZINC001176298561   -0.1300
     18 Cl18      -11.8322    0.4306   59.7537 Cl      1  ZINC001176298561   -0.0400
     19 C19        -9.5238   -0.9149   59.9871 C.2     1  ZINC001176298561    0.1400
     20 N20        -8.7071   -1.9944   59.8472 N.am    1  ZINC001176298561   -0.6000
     21 C21        -9.1603   -3.1337   59.2902 C.2     1  ZINC001176298561    0.5100
     22 O22        -8.4159   -4.0939   59.1718 O.2     1  ZINC001176298561   -0.5200
     23 C23       -11.1120   -3.6538   55.9582 C.ar    1  ZINC001176298561   -0.1300
     24 H24       -13.5947    0.8343   54.5549 H       1  ZINC001176298561    0.0700
     25 H25       -12.3127    0.9946   53.3306 H       1  ZINC001176298561    0.0600
     26 H26       -13.6724   -0.1202   53.0545 H       1  ZINC001176298561    0.0600
     27 H27       -11.5551   -0.4010   55.2351 H       1  ZINC001176298561    0.0800
     28 H28       -12.9149   -1.5159   54.9590 H       1  ZINC001176298561    0.0900
     29 H29       -10.5786   -1.5193   51.5610 H       1  ZINC001176298561    0.0900
     30 H30       -11.6015   -0.1147   51.9470 H       1  ZINC001176298561    0.0800
     31 H31        -9.0511   -0.6462   53.4966 H       1  ZINC001176298561    0.0700
     32 H32        -9.0052    0.2040   51.9334 H       1  ZINC001176298561    0.0700
     33 H33        -9.9342    0.8854   53.2902 H       1  ZINC001176298561    0.0600
     34 H34       -13.5674   -4.2073   53.6825 H       1  ZINC001176298561    0.1500
     35 H35       -13.3081   -5.5152   57.7351 H       1  ZINC001176298561    0.1300
     36 H36       -10.8304   -5.2443   58.6884 H       1  ZINC001176298561    0.4200
     37 H37       -12.3389   -2.1685   58.6361 H       1  ZINC001176298561    0.1500
     38 H38        -9.1418   -0.0121   60.4402 H       1  ZINC001176298561    0.1800
     39 H39        -7.7888   -1.9438   60.1557 H       1  ZINC001176298561    0.4300
     40 H40       -10.1590   -3.1564   56.0616 H       1  ZINC001176298561    0.1400
@<TRIPOS>BOND
     1     1     2    1
     2     1    24    1
     3     1    25    1
     4     1    26    1
     5     2     3    1
     6     2    27    1
     7     2    28    1
     8     3     4    1
     9     3     6   am
    10     4     5    1
    11     4    29    1
    12     4    30    1
    13     5    31    1
    14     5    32    1
    15     5    33    1
    16     6     7    2
    17     6     8    1
    18     8    23   ar
    19     8     9   ar
    20     9    10   ar
    21     9    34    1
    22    10    11    1
    23    10    12   ar
    24    12    13   ar
    25    12    35    1
    26    13    14    1
    27    13    23   ar
    28    14    15    1
    29    14    36    1
    30    15    21    1
    31    15    16    2
    32    16    17    1
    33    16    37    1
    34    17    18    1
    35    17    19    2
    36    19    20    1
    37    19    38    1
    38    20    21   am
    39    20    39    1
    40    21    22    2
    41    23    40    1
@<TRIPOS>SUBSTRUCTURE
     1 ZINC001176298561        1 TEMP              0 ****  ****    0 ROOT


##########                                Name:    ZINC000652498551
##########                DOCK_Rotatable_Bonds:                   6
##########                         Heavy_Atoms:                  23
##########                    Molecular_Weight:             388.277
##########                DOCK_Rotatable_Bonds:                   6
##########                       Formal_Charge:          -0.0400001
##########                     HBond_Acceptors:                   5
##########                        HBond_Donors:                   1
##########                         Heavy_Atoms:                  23
##########                          Grid_Score:          -31.895020
##########                     Grid_vdw_energy:          -31.925947
##########                      Grid_es_energy:            0.030929
##########           Internal_energy_repulsive:           24.501736

@<TRIPOS>MOLECULE
ZINC000652498551
 46 47 1 0 0
SMALL
USER_CHARGES


@<TRIPOS>ATOM
      1 C1        -13.3392   -3.1065   58.5101 C.3     1  ZINC000652498551   -0.1300
      2 C2        -12.1635   -2.6973   57.6206 C.3     1  ZINC000652498551   -0.1300
      3 C3        -11.6726   -1.3076   58.0314 C.3     1  ZINC000652498551   -0.1300
      4 C4        -11.0434   -3.6929   57.7790 C.2     1  ZINC000652498551    0.5000
      5 O5        -11.1705   -4.8269   57.3497 O.co2   1  ZINC000652498551   -0.7000
      6 O6        -10.0100   -3.3643   58.3363 O.co2   1  ZINC000652498551   -0.6700
      7 C7        -12.6160   -2.6669   56.1593 C.3     1  ZINC000652498551   -0.0600
      8 H8        -13.1048   -1.7155   55.9494 H       1  ZINC000652498551    0.0700
      9 C9        -13.5983   -3.8137   55.9043 C.3     1  ZINC000652498551   -0.1500
     10 C10       -13.9842   -3.8221   54.4222 C.3     1  ZINC000652498551   -0.1400
     11 C11       -12.7180   -3.9432   53.5718 C.3     1  ZINC000652498551   -0.0100
     12 N12       -11.8320   -2.8044   53.8418 N.4     1  ZINC000652498551   -0.3800
     13 H13       -12.3267   -1.9441   53.6593 H       1  ZINC000652498551    0.4200
     14 C14       -10.6536   -2.8847   52.9684 C.3     1  ZINC000652498551    0.0000
     15 C15       -10.0760   -1.4832   52.7612 C.3     1  ZINC000652498551    0.0200
     16 O16        -9.0446   -1.5343   51.7734 O.3     1  ZINC000652498551   -0.3100
     17 C17        -8.2433   -0.4424   51.6611 C.ar    1  ZINC000652498551    0.1600
     18 C18        -6.9902   -0.5580   51.0786 C.ar    1  ZINC000652498551   -0.2300
     19 C19        -6.1757    0.5552   50.9653 C.ar    1  ZINC000652498551    0.1500
     20 F20        -4.9547    0.4437   50.3981 F       1  ZINC000652498551   -0.1200
     21 C21        -6.6122    1.7831   51.4329 C.ar    1  ZINC000652498551   -0.1600
     22 C22        -7.8621    1.8991   52.0146 C.ar    1  ZINC000652498551   -0.0300
     23 Br23       -8.4553    3.5776   52.6520 Br      1  ZINC000652498551   -0.0100
     24 C24        -8.6804    0.7904   52.1241 C.ar    1  ZINC000652498551   -0.1300
     25 C25       -11.4003   -2.8297   55.2445 C.3     1  ZINC000652498551   -0.0200
     26 H26       -14.1494   -2.3864   58.3956 H       1  ZINC000652498551    0.0400
     27 H27       -13.6888   -4.0965   58.2174 H       1  ZINC000652498551    0.0500
     28 H28       -13.0168   -3.1282   59.5512 H       1  ZINC000652498551    0.0600
     29 H29       -11.3502   -1.3293   59.0724 H       1  ZINC000652498551    0.0700
     30 H30       -10.8350   -1.0161   57.3978 H       1  ZINC000652498551    0.0400
     31 H31       -12.4828   -0.5875   57.9169 H       1  ZINC000652498551    0.0500
     32 H32       -13.1271   -4.7617   56.1636 H       1  ZINC000652498551    0.1300
     33 H33       -14.4913   -3.6708   56.5126 H       1  ZINC000652498551    0.0800
     34 H34       -14.6398   -4.6694   54.2217 H       1  ZINC000652498551    0.1000
     35 H35       -14.5012   -2.8947   54.1755 H       1  ZINC000652498551    0.0700
     36 H36       -12.2020   -4.8709   53.8192 H       1  ZINC000652498551    0.1300
     37 H37       -12.9891   -3.9497   52.5161 H       1  ZINC000652498551    0.1100
     38 H38        -9.9011   -3.5230   53.4313 H       1  ZINC000652498551    0.1400
     39 H39       -10.9432   -3.3044   52.0051 H       1  ZINC000652498551    0.1500
     40 H40       -10.8658   -0.8103   52.4273 H       1  ZINC000652498551    0.1100
     41 H41        -9.6612   -1.1185   53.7009 H       1  ZINC000652498551    0.0900
     42 H42        -6.6499   -1.5160   50.7140 H       1  ZINC000652498551    0.1500
     43 H43        -5.9762    2.6513   51.3437 H       1  ZINC000652498551    0.1500
     44 H44        -9.6560    0.8820   52.5779 H       1  ZINC000652498551    0.1500
     45 H45       -10.6989   -2.0147   55.4230 H       1  ZINC000652498551    0.1100
     46 H46       -10.9123   -3.7809   55.4569 H       1  ZINC000652498551    0.1700
@<TRIPOS>BOND
     1     1     2    1
     2     1    26    1
     3     1    27    1
     4     1    28    1
     5     2     3    1
     6     2     4    1
     7     2     7    1
     8     3    29    1
     9     3    30    1
    10     3    31    1
    11     4     5   ar
    12     4     6   ar
    13     7     8    1
    14     7    25    1
    15     7     9    1
    16     9    10    1
    17     9    32    1
    18     9    33    1
    19    10    11    1
    20    10    34    1
    21    10    35    1
    22    11    12    1
    23    11    36    1
    24    11    37    1
    25    12    13    1
    26    12    14    1
    27    12    25    1
    28    14    15    1
    29    14    38    1
    30    14    39    1
    31    15    16    1
    32    15    40    1
    33    15    41    1
    34    16    17    1
    35    17    24   ar
    36    17    18   ar
    37    18    19   ar
    38    18    42    1
    39    19    20    1
    40    19    21   ar
    41    21    22   ar
    42    21    43    1
    43    22    23    1
    44    22    24   ar
    45    24    44    1
    46    25    45    1
    47    25    46    1
@<TRIPOS>SUBSTRUCTURE
     1 ZINC000652498551        1 TEMP              0 ****  ****    0 ROOT


##########                                Name:    ZINC000632456679
##########                DOCK_Rotatable_Bonds:                   6
##########                         Heavy_Atoms:                  24
##########                    Molecular_Weight:              374.82
##########                DOCK_Rotatable_Bonds:                   6
##########                       Formal_Charge:          -0.0299999
##########                     HBond_Acceptors:                   9
##########                        HBond_Donors:                   1
##########                         Heavy_Atoms:                  24
##########                          Grid_Score:          -31.894367
##########                     Grid_vdw_energy:          -31.786716
##########                      Grid_es_energy:           -0.107651
##########           Internal_energy_repulsive:           33.293468

@<TRIPOS>MOLECULE
ZINC000632456679
 40 41 1 0 0
SMALL
USER_CHARGES


@<TRIPOS>ATOM
      1 C1        -14.8642   -3.2995   56.4409 C.3     1  ZINC000632456679   -0.1600
      2 C2        -13.5286   -4.0374   56.5532 C.3     1  ZINC000632456679    0.1900
      3 C3        -13.7754   -5.4682   57.0357 C.3     1  ZINC000632456679   -0.2000
      4 C4        -12.8481   -4.0713   55.1833 C.3     1  ZINC000632456679   -0.6300
      5 S5        -12.4786   -2.3774   54.6497 S.o2    1  ZINC000632456679    2.4100
      6 C6        -11.4851   -2.6625   53.1588 C.3     1  ZINC000632456679   -0.6600
      7 O7        -13.6941   -1.7470   54.2700 O.2     1  ZINC000632456679   -0.9300
      8 O8        -11.6554   -1.7628   55.6315 O.2     1  ZINC000632456679   -0.9300
      9 N9        -12.6651   -3.3414   57.5104 N.am    1  ZINC000632456679   -0.7200
     10 C10       -11.4268   -3.8087   57.7646 C.2     1  ZINC000632456679    0.6200
     11 O11       -11.0270   -4.8089   57.2007 O.2     1  ZINC000632456679   -0.5000
     12 C12       -10.5567   -3.1068   58.7272 C.2     1  ZINC000632456679   -0.0900
     13 C13       -10.9452   -2.2002   59.6724 C.2     1  ZINC000632456679   -0.1300
     14 C14        -9.7298   -1.8406   60.3173 C.2     1  ZINC000632456679    0.0400
     15 C15        -9.5664   -0.8783   61.4351 C.ar    1  ZINC000632456679   -0.0500
     16 C16        -8.7962   -1.2198   62.5447 C.ar    1  ZINC000632456679   -0.0600
     17 C17        -8.6470   -0.3216   63.5820 C.ar    1  ZINC000632456679   -0.1100
     18 C18        -9.2604    0.9167   63.5235 C.ar    1  ZINC000632456679   -0.0700
     19 C19       -10.0272    1.2638   62.4252 C.ar    1  ZINC000632456679   -0.0800
     20 Cl20      -10.7937    2.8200   62.3597 Cl      1  ZINC000632456679   -0.0400
     21 C21       -10.1788    0.3740   61.3764 C.ar    1  ZINC000632456679    0.1400
     22 F22       -10.9270    0.7124   60.3036 F       1  ZINC000632456679   -0.1100
     23 N23        -8.7838   -2.5285   59.7286 N.2     1  ZINC000632456679   -0.3200
     24 O24        -9.2224   -3.2368   58.8528 O.3     1  ZINC000632456679    0.1400
     25 H25       -15.3491   -3.2753   57.4168 H       1  ZINC000632456679    0.0900
     26 H26       -14.6884   -2.2802   56.0972 H       1  ZINC000632456679    0.0600
     27 H27       -15.5067   -3.8173   55.7287 H       1  ZINC000632456679    0.0700
     28 H28       -14.4178   -5.9860   56.3235 H       1  ZINC000632456679    0.0800
     29 H29       -12.8239   -5.9939   57.1155 H       1  ZINC000632456679    0.0800
     30 H30       -14.2603   -5.4440   58.0116 H       1  ZINC000632456679    0.0900
     31 H31       -11.9214   -4.6410   55.2519 H       1  ZINC000632456679    0.1600
     32 H32       -13.5120   -4.5435   54.4593 H       1  ZINC000632456679    0.1400
     33 H33       -12.0739   -3.2212   52.4313 H       1  ZINC000632456679    0.1300
     34 H34       -11.1910   -1.7047   52.7296 H       1  ZINC000632456679    0.1300
     35 H35       -10.5937   -3.2327   53.4198 H       1  ZINC000632456679    0.1300
     36 H36       -12.9847   -2.5441   57.9612 H       1  ZINC000632456679    0.4200
     37 H37       -11.9421   -1.8403   59.8806 H       1  ZINC000632456679    0.1900
     38 H38        -8.3167   -2.1862   62.5932 H       1  ZINC000632456679    0.1500
     39 H39        -8.0498   -0.5866   64.4420 H       1  ZINC000632456679    0.1500
     40 H40        -9.1408    1.6152   64.3385 H       1  ZINC000632456679    0.1500
@<TRIPOS>BOND
     1     1     2    1
     2     1    25    1
     3     1    26    1
     4     1    27    1
     5     2     3    1
     6     2     4    1
     7     2     9    1
     8     3    28    1
     9     3    29    1
    10     3    30    1
    11     4     5    1
    12     4    31    1
    13     4    32    1
    14     5     6    1
    15     5     7    2
    16     5     8    2
    17     6    33    1
    18     6    34    1
    19     6    35    1
    20     9    10   am
    21     9    36    1
    22    10    11    2
    23    10    12    1
    24    12    24    1
    25    12    13    2
    26    13    14    1
    27    13    37    1
    28    14    15    1
    29    14    23    2
    30    15    21   ar
    31    15    16   ar
    32    16    17   ar
    33    16    38    1
    34    17    18   ar
    35    17    39    1
    36    18    19   ar
    37    18    40    1
    38    19    20    1
    39    19    21   ar
    40    21    22    1
    41    23    24    1
@<TRIPOS>SUBSTRUCTURE
     1 ZINC000632456679        1 TEMP              0 ****  ****    0 ROOT


##########                                Name:    ZINC001513543414
##########                DOCK_Rotatable_Bonds:                   6
##########                         Heavy_Atoms:                  26
##########                    Molecular_Weight:             364.488
##########                DOCK_Rotatable_Bonds:                   6
##########                       Formal_Charge:         -0.00999974
##########                     HBond_Acceptors:                   7
##########                        HBond_Donors:                   0
##########                         Heavy_Atoms:                  26
##########                          Grid_Score:          -31.870451
##########                     Grid_vdw_energy:          -31.278873
##########                      Grid_es_energy:           -0.591578
##########           Internal_energy_repulsive:           18.492868

@<TRIPOS>MOLECULE
ZINC001513543414
 58 61 1 0 0
SMALL
USER_CHARGES


@<TRIPOS>ATOM
      1 C1         -8.4788    3.9701   57.7176 C.3     1  ZINC001513543414   -0.1500
      2 C2         -8.8450    3.3446   56.3703 C.3     1  ZINC001513543414   -0.1200
      3 C3         -9.5192    1.9910   56.6027 C.3     1  ZINC001513543414    0.1100
      4 C4        -10.2811    1.5680   55.3452 C.3     1  ZINC001513543414   -0.1500
      5 C5         -8.4551    0.9293   56.9546 C.3     1  ZINC001513543414   -0.1500
      6 C6         -9.1710    0.0964   58.0527 C.3     1  ZINC001513543414   -0.1500
      7 C7        -10.0030    1.1955   58.7600 C.3     1  ZINC001513543414    0.0700
      8 H8         -9.3867    1.7300   59.4830 H       1  ZINC001513543414    0.0800
      9 C9        -11.2186    0.5775   59.4539 C.3     1  ZINC001513543414    0.1100
     10 N10       -10.8710   -0.7554   59.9524 N.pl3   1  ZINC001513543414   -0.4600
     11 C11       -10.1275   -1.0544   61.0604 C.2     1  ZINC001513543414    0.1900
     12 C12        -9.5034   -0.0653   62.0107 C.3     1  ZINC001513543414    0.1800
     13 H13        -8.9901    0.7198   61.4555 H       1  ZINC001513543414    0.1000
     14 C14       -10.5850    0.5487   62.9349 C.3     1  ZINC001513543414   -0.1500
     15 C15        -9.7247    0.9664   64.1586 C.3     1  ZINC001513543414   -0.1500
     16 C16        -8.6525   -0.1437   64.1995 C.3     1  ZINC001513543414    0.0500
     17 O17        -8.5873   -0.7321   62.8937 O.3     1  ZINC001513543414   -0.3500
     18 N18       -10.0595   -2.3530   61.1426 N.2     1  ZINC001513543414   -0.2600
     19 N19       -10.7043   -2.8906   60.1696 N.2     1  ZINC001513543414   -0.3100
     20 C20       -11.2270   -1.9563   59.4109 C.2     1  ZINC001513543414    0.3400
     21 N21       -11.9892   -2.1519   58.2702 N.3     1  ZINC001513543414   -0.4500
     22 C22       -13.4133   -2.3533   58.6127 C.3     1  ZINC001513543414    0.0500
     23 C23       -13.9393   -3.3483   57.5483 C.3     1  ZINC001513543414   -0.1500
     24 C24       -12.7171   -4.2860   57.3649 C.3     1  ZINC001513543414    0.0700
     25 H25       -12.6981   -5.0509   58.1413 H       1  ZINC001513543414    0.0800
     26 O26       -12.7303   -4.8855   56.0677 O.3     1  ZINC001513543414   -0.3800
     27 C27       -13.8878   -5.6820   55.8073 C.3     1  ZINC001513543414    0.0300
     28 C28       -11.5174   -3.3268   57.5145 C.3     1  ZINC001513543414    0.0600
     29 O29       -10.4227    2.0821   57.7106 O.3     1  ZINC001513543414   -0.3600
     30 H30        -7.9985    4.9344   57.5519 H       1  ZINC001513543414    0.0500
     31 H31        -9.3827    4.1115   58.3102 H       1  ZINC001513543414    0.0500
     32 H32        -7.7944    3.3101   58.2507 H       1  ZINC001513543414    0.0600
     33 H33        -9.5294    4.0045   55.8372 H       1  ZINC001513543414    0.0700
     34 H34        -7.9412    3.2032   55.7777 H       1  ZINC001513543414    0.0600
     35 H35        -9.5839    1.4732   54.5127 H       1  ZINC001513543414    0.0700
     36 H36       -10.7692    0.6094   55.5212 H       1  ZINC001513543414    0.0600
     37 H37       -11.0328    2.3200   55.1056 H       1  ZINC001513543414    0.0700
     38 H38        -8.2230    0.3105   56.0879 H       1  ZINC001513543414    0.0900
     39 H39        -7.5543    1.3991   57.3497 H       1  ZINC001513543414    0.0800
     40 H40        -9.8171   -0.6625   57.6112 H       1  ZINC001513543414    0.0800
     41 H41        -8.4511   -0.3529   58.7368 H       1  ZINC001513543414    0.0900
     42 H42       -11.5212    1.2100   60.2883 H       1  ZINC001513543414    0.1000
     43 H43       -12.0405    0.4964   58.7425 H       1  ZINC001513543414    0.1100
     44 H44       -11.0532    1.4160   62.4693 H       1  ZINC001513543414    0.0900
     45 H45       -11.3310   -0.1951   63.2146 H       1  ZINC001513543414    0.0900
     46 H46        -9.2669    1.9422   63.9959 H       1  ZINC001513543414    0.0800
     47 H47       -10.3210    0.9637   65.0710 H       1  ZINC001513543414    0.0900
     48 H48        -7.6850    0.2862   64.4586 H       1  ZINC001513543414    0.0700
     49 H49        -8.9311   -0.8998   64.9335 H       1  ZINC001513543414    0.0700
     50 H50       -13.5067   -2.7809   59.6109 H       1  ZINC001513543414    0.0600
     51 H51       -13.9555   -1.4097   58.5508 H       1  ZINC001513543414    0.0900
     52 H52       -14.8020   -3.8999   57.9220 H       1  ZINC001513543414    0.0800
     53 H53       -14.1798   -2.8339   56.6180 H       1  ZINC001513543414    0.0900
     54 H54       -13.8220   -6.1013   54.8034 H       1  ZINC001513543414    0.0900
     55 H55       -13.9438   -6.4906   56.5360 H       1  ZINC001513543414    0.0400
     56 H56       -14.7806   -5.0613   55.8841 H       1  ZINC001513543414    0.0400
     57 H57       -11.1648   -3.0177   56.5305 H       1  ZINC001513543414    0.1000
     58 H58       -10.7137   -3.8207   58.0606 H       1  ZINC001513543414    0.0900
@<TRIPOS>BOND
     1     1     2    1
     2     1    30    1
     3     1    31    1
     4     1    32    1
     5     2     3    1
     6     2    33    1
     7     2    34    1
     8     3    29    1
     9     3     4    1
    10     3     5    1
    11     4    35    1
    12     4    36    1
    13     4    37    1
    14     5     6    1
    15     5    38    1
    16     5    39    1
    17     6     7    1
    18     6    40    1
    19     6    41    1
    20     7     8    1
    21     7     9    1
    22     7    29    1
    23     9    10    1
    24     9    42    1
    25     9    43    1
    26    10    20    1
    27    10    11    1
    28    11    12    1
    29    11    18    2
    30    12    13    1
    31    12    17    1
    32    12    14    1
    33    14    15    1
    34    14    44    1
    35    14    45    1
    36    15    16    1
    37    15    46    1
    38    15    47    1
    39    16    17    1
    40    16    48    1
    41    16    49    1
    42    18    19    1
    43    19    20    2
    44    20    21    1
    45    21    28    1
    46    21    22    1
    47    22    23    1
    48    22    50    1
    49    22    51    1
    50    23    24    1
    51    23    52    1
    52    23    53    1
    53    24    25    1
    54    24    26    1
    55    24    28    1
    56    26    27    1
    57    27    54    1
    58    27    55    1
    59    27    56    1
    60    28    57    1
    61    28    58    1
@<TRIPOS>SUBSTRUCTURE
     1 ZINC001513543414        1 TEMP              0 ****  ****    0 ROOT


##########                                Name:    ZINC001053433946
##########                DOCK_Rotatable_Bonds:                   6
##########                         Heavy_Atoms:                  24
##########                    Molecular_Weight:             337.419
##########                DOCK_Rotatable_Bonds:                   6
##########                       Formal_Charge:               -0.02
##########                     HBond_Acceptors:                   7
##########                        HBond_Donors:                   2
##########                         Heavy_Atoms:                  24
##########                          Grid_Score:          -31.826668
##########                     Grid_vdw_energy:          -29.527695
##########                      Grid_es_energy:           -2.298973
##########           Internal_energy_repulsive:           15.167819

@<TRIPOS>MOLECULE
ZINC001053433946
 51 54 1 0 0
SMALL
USER_CHARGES


@<TRIPOS>ATOM
      1 N1         -9.2088    1.8245   64.2521 N.am    1  ZINC001053433946   -0.8300
      2 C2        -10.3870    1.4118   63.7442 C.2     1  ZINC001053433946    0.5600
      3 O3        -11.1132    0.6961   64.4009 O.2     1  ZINC001053433946   -0.5500
      4 C4        -10.8021    1.8397   62.3601 C.3     1  ZINC001053433946   -0.1600
      5 H5        -10.7150    2.9060   62.1517 H       1  ZINC001053433946    0.1400
      6 C6        -11.9596    1.0839   61.7044 C.3     1  ZINC001053433946   -0.1300
      7 C7        -10.5271    0.8702   61.2088 C.3     1  ZINC001053433946   -0.1700
      8 H8        -10.2596    1.2986   60.2429 H       1  ZINC001053433946    0.1400
      9 C9         -9.8626   -0.4399   61.5452 C.2     1  ZINC001053433946    0.5400
     10 O10        -8.9958   -0.4802   62.3925 O.2     1  ZINC001053433946   -0.5200
     11 N11       -10.2316   -1.5668   60.9044 N.am    1  ZINC001053433946   -0.6100
     12 C12        -9.5985   -2.8581   61.2144 C.3     1  ZINC001053433946    0.0700
     13 C13        -9.1066   -3.4908   59.9084 C.3     1  ZINC001053433946    0.0500
     14 O14       -10.1927   -3.5659   58.9795 O.3     1  ZINC001053433946   -0.3400
     15 C15       -10.7607   -2.3015   58.6494 C.3     1  ZINC001053433946    0.0800
     16 C16        -9.8764   -1.4470   57.7314 C.3     1  ZINC001053433946   -0.0100
     17 N17       -10.6045   -2.0822   56.6097 N.3     1  ZINC001053433946   -0.4700
     18 C18       -10.9489   -1.0940   55.5788 C.3     1  ZINC001053433946    0.0200
     19 C19       -11.2786   -1.8155   54.2705 C.3     1  ZINC001053433946   -0.1200
     20 H20       -10.7530   -2.7699   54.2384 H       1  ZINC001053433946    0.0800
     21 C21       -12.7885   -2.0597   54.1871 C.3     1  ZINC001053433946   -0.1200
     22 C22       -13.1155   -2.7117   52.8401 C.3     1  ZINC001053433946   -0.1600
     23 C23       -12.6093   -1.8116   51.7100 C.3     1  ZINC001053433946    0.0600
     24 O24       -11.2044   -1.5998   51.8646 O.3     1  ZINC001053433946   -0.3800
     25 C25       -10.8419   -0.9508   53.0851 C.3     1  ZINC001053433946    0.0700
     26 C26       -11.7634   -2.3572   57.4892 C.3     1  ZINC001053433946    0.0200
     27 C27       -11.2861   -1.5455   59.8756 C.3     1  ZINC001053433946    0.1000
     28 H28        -8.9412    1.5481   65.1426 H       1  ZINC001053433946    0.4000
     29 H29        -8.6267    2.3946   63.7258 H       1  ZINC001053433946    0.4000
     30 H30       -12.4209    0.2773   62.2742 H       1  ZINC001053433946    0.1100
     31 H31       -12.6338    1.6530   61.0644 H       1  ZINC001053433946    0.1200
     32 H32        -8.7536   -2.6995   61.8846 H       1  ZINC001053433946    0.1000
     33 H33       -10.3256   -3.5172   61.6888 H       1  ZINC001053433946    0.0800
     34 H34        -8.3086   -2.8801   59.4863 H       1  ZINC001053433946    0.0600
     35 H35        -8.7299   -4.4938   60.1094 H       1  ZINC001053433946    0.1100
     36 H36       -10.0556   -0.3757   57.8212 H       1  ZINC001053433946    0.0800
     37 H37        -8.8188   -1.7079   57.7727 H       1  ZINC001053433946    0.0900
     38 H38       -11.8147   -0.5167   55.9035 H       1  ZINC001053433946    0.0500
     39 H39       -10.1038   -0.4239   55.4212 H       1  ZINC001053433946    0.0800
     40 H40       -13.0961   -2.7215   54.9967 H       1  ZINC001053433946    0.0700
     41 H41       -13.3166   -1.1098   54.2701 H       1  ZINC001053433946    0.0700
     42 H42       -12.6270   -3.6842   52.7780 H       1  ZINC001053433946    0.0700
     43 H43       -14.1943   -2.8386   52.7492 H       1  ZINC001053433946    0.0700
     44 H44       -12.8011   -2.2909   50.7500 H       1  ZINC001053433946    0.0900
     45 H45       -13.1277   -0.8536   51.7483 H       1  ZINC001053433946    0.0500
     46 H46       -11.3369    0.0187   53.1423 H       1  ZINC001053433946    0.0500
     47 H47        -9.7614   -0.8098   53.1148 H       1  ZINC001053433946    0.1000
     48 H48       -12.2063   -3.3415   57.3378 H       1  ZINC001053433946    0.1000
     49 H49       -12.5015   -1.5553   57.5073 H       1  ZINC001053433946    0.0900
     50 H50       -12.1857   -2.0331   60.2513 H       1  ZINC001053433946    0.0800
     51 H51       -11.5118   -0.5143   59.6037 H       1  ZINC001053433946    0.1000
@<TRIPOS>BOND
     1     1     2   am
     2     1    28    1
     3     1    29    1
     4     2     3    2
     5     2     4    1
     6     4     5    1
     7     4     7    1
     8     4     6    1
     9     6     7    1
    10     6    30    1
    11     6    31    1
    12     7     8    1
    13     7     9    1
    14     9    10    2
    15     9    11   am
    16    11    27    1
    17    11    12    1
    18    12    13    1
    19    12    32    1
    20    12    33    1
    21    13    14    1
    22    13    34    1
    23    13    35    1
    24    14    15    1
    25    15    26    1
    26    15    16    1
    27    15    27    1
    28    16    17    1
    29    16    36    1
    30    16    37    1
    31    17    18    1
    32    17    26    1
    33    18    19    1
    34    18    38    1
    35    18    39    1
    36    19    20    1
    37    19    25    1
    38    19    21    1
    39    21    22    1
    40    21    40    1
    41    21    41    1
    42    22    23    1
    43    22    42    1
    44    22    43    1
    45    23    24    1
    46    23    44    1
    47    23    45    1
    48    24    25    1
    49    25    46    1
    50    25    47    1
    51    26    48    1
    52    26    49    1
    53    27    50    1
    54    27    51    1
@<TRIPOS>SUBSTRUCTURE
     1 ZINC001053433946        1 TEMP              0 ****  ****    0 ROOT


##########                                Name:    ZINC000550011575
##########                DOCK_Rotatable_Bonds:                   6
##########                         Heavy_Atoms:                  28
##########                    Molecular_Weight:             423.935
##########                DOCK_Rotatable_Bonds:                   6
##########                       Formal_Charge:          -0.0100002
##########                     HBond_Acceptors:                   7
##########                        HBond_Donors:                   0
##########                         Heavy_Atoms:                  28
##########                          Grid_Score:          -31.810575
##########                     Grid_vdw_energy:          -31.747419
##########                      Grid_es_energy:           -0.063156
##########           Internal_energy_repulsive:           38.004341

@<TRIPOS>MOLECULE
ZINC000550011575
 51 53 1 0 0
SMALL
USER_CHARGES


@<TRIPOS>ATOM
      1 C1        -14.5796   -2.9844   52.8358 C.3     1  ZINC000550011575   -0.1400
      2 C2        -13.4628   -2.4198   53.7161 C.3     1  ZINC000550011575   -0.6100
      3 H3        -13.7691   -1.4533   54.1164 H       1  ZINC000550011575    0.1500
      4 C4        -13.1897   -3.3707   54.8529 C.2     1  ZINC000550011575    0.5400
      5 O5        -12.2078   -4.0820   54.8259 O.2     1  ZINC000550011575   -0.5100
      6 N6        -14.0368   -3.4307   55.8994 N.am    1  ZINC000550011575   -0.6000
      7 C7        -15.2239   -2.5727   55.9311 C.3     1  ZINC000550011575    0.0600
      8 C8        -13.7704   -4.3538   57.0053 C.3     1  ZINC000550011575    0.1500
      9 C9        -13.3989   -3.5687   58.2368 C.ar    1  ZINC000550011575   -0.1500
     10 C10       -14.3822   -3.1649   59.1234 C.ar    1  ZINC000550011575    0.1400
     11 F11       -15.6755   -3.4744   58.8852 F       1  ZINC000550011575   -0.1100
     12 C12       -14.0393   -2.4440   60.2550 C.ar    1  ZINC000550011575   -0.1500
     13 C13       -12.7163   -2.1281   60.4986 C.ar    1  ZINC000550011575   -0.0700
     14 C14       -11.7342   -2.5314   59.6131 C.ar    1  ZINC000550011575   -0.1300
     15 C15       -12.0743   -3.2561   58.4849 C.ar    1  ZINC000550011575    0.0000
     16 Cl16      -10.8403   -3.7627   57.3739 Cl      1  ZINC000550011575   -0.0500
     17 S17       -11.9573   -2.2139   52.7251 S.o2    1  ZINC000550011575    2.4500
     18 O18       -11.4982   -3.4984   52.3269 O.2     1  ZINC000550011575   -0.9200
     19 O19       -12.1999   -1.2256   51.7333 O.2     1  ZINC000550011575   -0.9100
     20 C20       -10.7963   -1.5372   53.9435 C.3     1  ZINC000550011575   -0.5300
     21 H21       -10.4115   -2.3479   54.5622 H       1  ZINC000550011575    0.1500
     22 C22       -11.5265   -0.5304   54.8300 C.3     1  ZINC000550011575   -0.1100
     23 C23       -10.4904    0.1864   55.7037 C.3     1  ZINC000550011575   -0.1100
     24 C24        -9.6511    1.0957   54.8083 C.3     1  ZINC000550011575   -0.0900
     25 C25        -9.1188    0.3291   53.6259 C.ar    1  ZINC000550011575   -0.0600
     26 C26        -8.0505    0.8770   52.9280 C.ar    1  ZINC000550011575   -0.1200
     27 C27        -7.5212    0.2263   51.8325 C.ar    1  ZINC000550011575   -0.1100
     28 C28        -8.0585   -0.9802   51.4250 C.ar    1  ZINC000550011575   -0.1100
     29 C29        -9.1185   -1.5274   52.1186 C.ar    1  ZINC000550011575   -0.1500
     30 C30        -9.6507   -0.8751   53.2237 C.ar    1  ZINC000550011575   -0.0800
     31 H31       -14.8900   -2.2291   52.1137 H       1  ZINC000550011575    0.0900
     32 H32       -14.2151   -3.8648   52.3067 H       1  ZINC000550011575    0.0900
     33 H33       -15.4292   -3.2613   53.4599 H       1  ZINC000550011575    0.0800
     34 H34       -16.0591   -3.0905   55.4594 H       1  ZINC000550011575    0.0700
     35 H35       -15.4774   -2.3414   56.9657 H       1  ZINC000550011575    0.0800
     36 H36       -15.0184   -1.6481   55.3919 H       1  ZINC000550011575    0.0700
     37 H37       -14.6631   -4.9458   57.2074 H       1  ZINC000550011575    0.1000
     38 H38       -12.9484   -5.0168   56.7353 H       1  ZINC000550011575    0.1100
     39 H39       -14.8060   -2.1283   60.9470 H       1  ZINC000550011575    0.1500
     40 H40       -12.4494   -1.5655   61.3810 H       1  ZINC000550011575    0.1500
     41 H41       -10.7005   -2.2837   59.8042 H       1  ZINC000550011575    0.1400
     42 H42       -12.0475    0.1969   54.2072 H       1  ZINC000550011575    0.0800
     43 H43       -12.2435   -1.0519   55.4640 H       1  ZINC000550011575    0.0900
     44 H44       -10.9986    0.7840   56.4604 H       1  ZINC000550011575    0.0800
     45 H45        -9.8465   -0.5485   56.1871 H       1  ZINC000550011575    0.0700
     46 H46       -10.2692    1.9203   54.4533 H       1  ZINC000550011575    0.0800
     47 H47        -8.8158    1.4949   55.3835 H       1  ZINC000550011575    0.0800
     48 H48        -7.6308    1.8201   53.2452 H       1  ZINC000550011575    0.1300
     49 H49        -6.6901    0.6585   51.2949 H       1  ZINC000550011575    0.1300
     50 H50        -7.6503   -1.4928   50.5664 H       1  ZINC000550011575    0.1300
     51 H51        -9.5381   -2.4698   51.7992 H       1  ZINC000550011575    0.1700
@<TRIPOS>BOND
     1     1     2    1
     2     1    31    1
     3     1    32    1
     4     1    33    1
     5     2     3    1
     6     2     4    1
     7     2    17    1
     8     4     5    2
     9     4     6   am
    10     6     7    1
    11     6     8    1
    12     7    34    1
    13     7    35    1
    14     7    36    1
    15     8     9    1
    16     8    37    1
    17     8    38    1
    18     9    15   ar
    19     9    10   ar
    20    10    11    1
    21    10    12   ar
    22    12    13   ar
    23    12    39    1
    24    13    14   ar
    25    13    40    1
    26    14    15   ar
    27    14    41    1
    28    15    16    1
    29    17    18    2
    30    17    19    2
    31    17    20    1
    32    20    21    1
    33    20    30    1
    34    20    22    1
    35    22    23    1
    36    22    42    1
    37    22    43    1
    38    23    24    1
    39    23    44    1
    40    23    45    1
    41    24    25    1
    42    24    46    1
    43    24    47    1
    44    25    30   ar
    45    25    26   ar
    46    26    27   ar
    47    26    48    1
    48    27    28   ar
    49    27    49    1
    50    28    29   ar
    51    28    50    1
    52    29    30   ar
    53    29    51    1
@<TRIPOS>SUBSTRUCTURE
     1 ZINC000550011575        1 TEMP              0 ****  ****    0 ROOT


##########                                Name:    ZINC001045463759
##########                DOCK_Rotatable_Bonds:                   6
##########                         Heavy_Atoms:                  24
##########                    Molecular_Weight:             336.385
##########                DOCK_Rotatable_Bonds:                   6
##########                       Formal_Charge:          1.3411e-07
##########                     HBond_Acceptors:                   7
##########                        HBond_Donors:                   2
##########                         Heavy_Atoms:                  24
##########                          Grid_Score:          -31.763474
##########                     Grid_vdw_energy:          -31.730824
##########                      Grid_es_energy:           -0.032649
##########           Internal_energy_repulsive:            9.128703

@<TRIPOS>MOLECULE
ZINC001045463759
 46 49 1 0 0
SMALL
USER_CHARGES


@<TRIPOS>ATOM
      1 O1        -10.8747   -3.5073   52.6211 O.2     1  ZINC001045463759   -0.5100
      2 C2        -11.0354   -2.4387   53.1717 C.2     1  ZINC001045463759    0.5400
      3 N3        -11.7024   -2.3767   54.3412 N.am    1  ZINC001045463759   -0.7200
      4 C4        -12.2387   -3.5994   54.9443 C.3     1  ZINC001045463759    0.1400
      5 H5        -11.7104   -4.4643   54.5431 H       1  ZINC001045463759    0.1000
      6 C6        -13.7293   -3.7167   54.6200 C.3     1  ZINC001045463759   -0.1300
      7 C7        -14.2893   -4.9937   55.2497 C.3     1  ZINC001045463759   -0.1200
      8 C8        -14.1003   -4.9393   56.7671 C.3     1  ZINC001045463759   -0.1200
      9 C9        -12.6097   -4.8220   57.0914 C.3     1  ZINC001045463759   -0.1300
     10 C10       -12.0496   -3.5451   56.4616 C.3     1  ZINC001045463759    0.1500
     11 H11       -12.5780   -2.6802   56.8628 H       1  ZINC001045463759    0.0900
     12 N12       -10.6223   -3.4328   56.7722 N.pl3   1  ZINC001045463759   -0.7100
     13 C13       -10.2179   -3.0071   58.0270 C.ar    1  ZINC001045463759    0.4400
     14 C14        -9.5714   -3.8848   58.8995 C.ar    1  ZINC001045463759   -0.3000
     15 C15        -9.1879   -3.4125   60.1394 C.ar    1  ZINC001045463759    0.1800
     16 N16        -9.4436   -2.1517   60.4586 N.ar    1  ZINC001045463759   -0.5600
     17 C17       -10.0558   -1.3480   59.6125 C.ar    1  ZINC001045463759    0.4000
     18 C18       -10.3250    0.0777   60.0204 C.3     1  ZINC001045463759   -0.1100
     19 C19       -11.1259    0.9503   59.0520 C.3     1  ZINC001045463759   -0.1500
     20 C20       -11.7701    0.4575   60.3493 C.3     1  ZINC001045463759   -0.1500
     21 N21       -10.4343   -1.7544   58.4178 N.ar    1  ZINC001045463759   -0.5700
     22 C22       -10.4837   -1.1809   52.5514 C.3     1  ZINC001045463759   -0.2000
     23 H23        -9.9926   -1.3089   51.5868 H       1  ZINC001045463759    0.1500
     24 C24       -11.2563    0.1191   52.7840 C.3     1  ZINC001045463759   -0.1500
     25 C25        -9.9212   -0.1159   53.4949 C.3     1  ZINC001045463759    0.2300
     26 F26        -9.9587   -0.3840   54.8675 F       1  ZINC001045463759   -0.1400
     27 F27        -8.8161    0.6196   53.0534 F       1  ZINC001045463759   -0.1500
     28 H28       -11.8275   -1.5226   54.7836 H       1  ZINC001045463759    0.4000
     29 H29       -14.2575   -2.8519   55.0211 H       1  ZINC001045463759    0.0700
     30 H30       -13.8640   -3.7555   53.5389 H       1  ZINC001045463759    0.0800
     31 H31       -15.3513   -5.0773   55.0187 H       1  ZINC001045463759    0.0700
     32 H32       -13.7611   -5.8586   54.8485 H       1  ZINC001045463759    0.0700
     33 H33       -14.6285   -4.0745   57.1682 H       1  ZINC001045463759    0.0700
     34 H34       -14.4993   -5.8490   57.2157 H       1  ZINC001045463759    0.0700
     35 H35       -12.4749   -4.7833   58.1724 H       1  ZINC001045463759    0.0700
     36 H36       -12.0814   -5.6869   56.6902 H       1  ZINC001045463759    0.0700
     37 H37        -9.9605   -3.6564   56.0993 H       1  ZINC001045463759    0.4100
     38 H38        -9.3765   -4.9075   58.6121 H       1  ZINC001045463759    0.1400
     39 H39        -8.6859   -4.0627   60.8406 H       1  ZINC001045463759    0.1700
     40 H40        -9.5346    0.5591   60.5962 H       1  ZINC001045463759    0.1300
     41 H41       -10.8623    2.0062   58.9904 H       1  ZINC001045463759    0.1000
     42 H42       -11.4580    0.4933   58.1198 H       1  ZINC001045463759    0.1100
     43 H43       -12.5262   -0.3237   60.2706 H       1  ZINC001045463759    0.1000
     44 H44       -11.9305    1.1891   61.1411 H       1  ZINC001045463759    0.1000
     45 H45       -11.2731    0.8466   51.9725 H       1  ZINC001045463759    0.1400
     46 H46       -12.1636    0.0646   53.3856 H       1  ZINC001045463759    0.1300
@<TRIPOS>BOND
     1     1     2    2
     2     2     3   am
     3     2    22    1
     4     3     4    1
     5     3    28    1
     6     4     5    1
     7     4    10    1
     8     4     6    1
     9     6     7    1
    10     6    29    1
    11     6    30    1
    12     7     8    1
    13     7    31    1
    14     7    32    1
    15     8     9    1
    16     8    33    1
    17     8    34    1
    18     9    10    1
    19     9    35    1
    20     9    36    1
    21    10    11    1
    22    10    12    1
    23    12    13    1
    24    12    37    1
    25    13    21   ar
    26    13    14   ar
    27    14    15   ar
    28    14    38    1
    29    15    16   ar
    30    15    39    1
    31    16    17   ar
    32    17    18    1
    33    17    21   ar
    34    18    20    1
    35    18    19    1
    36    18    40    1
    37    19    20    1
    38    19    41    1
    39    19    42    1
    40    20    43    1
    41    20    44    1
    42    22    23    1
    43    22    25    1
    44    22    24    1
    45    24    25    1
    46    24    45    1
    47    24    46    1
    48    25    26    1
    49    25    27    1
@<TRIPOS>SUBSTRUCTURE
     1 ZINC001045463759        1 TEMP              0 ****  ****    0 ROOT


##########                                Name:    ZINC000441887161
##########                DOCK_Rotatable_Bonds:                   6
##########                         Heavy_Atoms:                  27
##########                    Molecular_Weight:             383.514
##########                DOCK_Rotatable_Bonds:                   6
##########                       Formal_Charge:          -0.0300002
##########                     HBond_Acceptors:                   6
##########                        HBond_Donors:                   1
##########                         Heavy_Atoms:                  27
##########                          Grid_Score:          -31.746355
##########                     Grid_vdw_energy:          -31.859896
##########                      Grid_es_energy:            0.113540
##########           Internal_energy_repulsive:           18.822287

@<TRIPOS>MOLECULE
ZINC000441887161
 52 54 1 0 0
SMALL
USER_CHARGES


@<TRIPOS>ATOM
      1 C1         -8.7186   -0.6471   52.1848 C.3     1  ZINC000441887161   -0.1200
      2 C2         -9.9023   -1.2139   52.9254 C.ar    1  ZINC000441887161   -0.0700
      3 C3        -10.3015   -2.5171   52.6962 C.ar    1  ZINC000441887161   -0.1200
      4 C4        -11.3875   -3.0371   53.3757 C.ar    1  ZINC000441887161   -0.0900
      5 C5        -12.0737   -2.2539   54.2846 C.ar    1  ZINC000441887161   -0.1100
      6 C6        -13.2577   -2.8205   55.0248 C.3     1  ZINC000441887161    0.1900
      7 H7        -13.3327   -2.3496   56.0051 H       1  ZINC000441887161    0.1000
      8 C8        -14.5353   -2.5473   54.2287 C.3     1  ZINC000441887161    0.1000
      9 N9        -15.6621   -2.3908   55.1520 N.pl3   1  ZINC000441887161   -0.4600
     10 C10       -15.6284   -1.7856   56.3792 C.2     1  ZINC000441887161   -0.0500
     11 C11       -16.8741   -1.8616   56.8854 C.2     1  ZINC000441887161   -0.0200
     12 N12       -17.6471   -2.4961   55.9916 N.2     1  ZINC000441887161   -0.4900
     13 C13       -16.9290   -2.8116   54.9486 C.2     1  ZINC000441887161    0.1800
     14 N14       -13.0845   -4.2659   55.1895 N.am    1  ZINC000441887161   -1.1100
     15 S15       -13.2564   -4.9554   56.6853 S.o2    1  ZINC000441887161    2.6900
     16 O16       -14.5261   -4.5443   57.1731 O.2     1  ZINC000441887161   -0.9600
     17 O17       -12.8824   -6.3190   56.5439 O.2     1  ZINC000441887161   -0.9500
     18 C18       -12.0548   -4.2169   57.7412 C.ar    1  ZINC000441887161   -0.6800
     19 C19       -10.8539   -4.8593   57.9772 C.ar    1  ZINC000441887161   -0.0300
     20 C20        -9.9111   -4.2798   58.8058 C.ar    1  ZINC000441887161   -0.1300
     21 C21       -10.1690   -3.0578   59.3978 C.ar    1  ZINC000441887161   -0.0200
     22 C22        -9.1415   -2.4263   60.3014 C.3     1  ZINC000441887161   -0.1300
     23 C23       -11.3697   -2.4145   59.1607 C.ar    1  ZINC000441887161   -0.1000
     24 C24       -11.6508   -1.0819   59.8058 C.3     1  ZINC000441887161   -0.1200
     25 C25       -12.3106   -2.9920   58.3293 C.ar    1  ZINC000441887161   -0.0100
     26 C26       -11.6735   -0.9507   54.5149 C.ar    1  ZINC000441887161   -0.0700
     27 C27       -12.4214   -0.0969   55.5062 C.3     1  ZINC000441887161   -0.1300
     28 C28       -10.5855   -0.4321   53.8384 C.ar    1  ZINC000441887161   -0.1200
     29 H29        -7.8086   -0.8377   52.7539 H       1  ZINC000441887161    0.0700
     30 H30        -8.6412   -1.1211   51.2064 H       1  ZINC000441887161    0.0700
     31 H31        -8.8497    0.4276   52.0586 H       1  ZINC000441887161    0.0700
     32 H32        -9.7653   -3.1292   51.9860 H       1  ZINC000441887161    0.1200
     33 H33       -11.6998   -4.0553   53.1960 H       1  ZINC000441887161    0.1200
     34 H34       -14.4127   -1.6337   53.6471 H       1  ZINC000441887161    0.1100
     35 H35       -14.7301   -3.3828   53.5562 H       1  ZINC000441887161    0.1000
     36 H36       -14.7682   -1.3341   56.8511 H       1  ZINC000441887161    0.1700
     37 H37       -17.1943   -1.4789   57.8431 H       1  ZINC000441887161    0.1600
     38 H38       -17.2872   -3.3292   54.0710 H       1  ZINC000441887161    0.2000
     39 H39       -12.8692   -4.8191   54.4223 H       1  ZINC000441887161    0.4200
     40 H40       -10.6523   -5.8141   57.5146 H       1  ZINC000441887161    0.1300
     41 H41        -8.9730   -4.7821   58.9907 H       1  ZINC000441887161    0.1300
     42 H42        -8.4777   -1.7947   59.7111 H       1  ZINC000441887161    0.0800
     43 H43        -9.6440   -1.8205   61.0555 H       1  ZINC000441887161    0.0800
     44 H44        -8.5596   -3.2071   60.7912 H       1  ZINC000441887161    0.0700
     45 H45       -11.3022   -0.2815   59.1531 H       1  ZINC000441887161    0.0800
     46 H46       -12.7232   -0.9764   59.9693 H       1  ZINC000441887161    0.0700
     47 H47       -11.1301   -1.0239   60.7617 H       1  ZINC000441887161    0.0700
     48 H48       -13.2485   -2.4895   58.1442 H       1  ZINC000441887161    0.1400
     49 H49       -11.9778   -0.2151   56.4949 H       1  ZINC000441887161    0.0800
     50 H50       -12.3612    0.9485   55.2036 H       1  ZINC000441887161    0.0700
     51 H51       -13.4660   -0.4066   55.5372 H       1  ZINC000441887161    0.0600
     52 H52       -10.2729    0.5859   54.0184 H       1  ZINC000441887161    0.1300
@<TRIPOS>BOND
     1     1     2    1
     2     1    29    1
     3     1    30    1
     4     1    31    1
     5     2    28   ar
     6     2     3   ar
     7     3     4   ar
     8     3    32    1
     9     4     5   ar
    10     4    33    1
    11     5     6    1
    12     5    26   ar
    13     6     7    1
    14     6     8    1
    15     6    14    1
    16     8     9    1
    17     8    34    1
    18     8    35    1
    19     9    13    1
    20     9    10    1
    21    10    11    2
    22    10    36    1
    23    11    12    1
    24    11    37    1
    25    12    13    2
    26    13    38    1
    27    14    15   am
    28    14    39    1
    29    15    16    2
    30    15    17    2
    31    15    18    1
    32    18    25   ar
    33    18    19   ar
    34    19    20   ar
    35    19    40    1
    36    20    21   ar
    37    20    41    1
    38    21    22    1
    39    21    23   ar
    40    22    42    1
    41    22    43    1
    42    22    44    1
    43    23    24    1
    44    23    25   ar
    45    24    45    1
    46    24    46    1
    47    24    47    1
    48    25    48    1
    49    26    27    1
    50    26    28   ar
    51    27    49    1
    52    27    50    1
    53    27    51    1
    54    28    52    1
@<TRIPOS>SUBSTRUCTURE
     1 ZINC000441887161        1 TEMP              0 ****  ****    0 ROOT


##########                                Name:    ZINC000281092425
##########                DOCK_Rotatable_Bonds:                   8
##########                         Heavy_Atoms:                  23
##########                    Molecular_Weight:             332.304
##########                DOCK_Rotatable_Bonds:                   8
##########                       Formal_Charge:         2.98023e-08
##########                     HBond_Acceptors:                   9
##########                        HBond_Donors:                   2
##########                         Heavy_Atoms:                  23
##########                          Grid_Score:          -31.699505
##########                     Grid_vdw_energy:          -28.902269
##########                      Grid_es_energy:           -2.797235
##########           Internal_energy_repulsive:           20.849016

@<TRIPOS>MOLECULE
ZINC000281092425
 41 42 1 0 0
SMALL
USER_CHARGES


@<TRIPOS>ATOM
      1 O1         -9.1262   -4.6276   59.3041 O.2     1  ZINC000281092425   -0.1800
      2 N2         -9.9546   -3.7419   59.1915 N.pl3   1  ZINC000281092425    0.0400
      3 O3        -10.8232   -3.8247   58.3417 O.2     1  ZINC000281092425   -0.1500
      4 C4         -9.9094   -2.5677   60.0914 C.ar    1  ZINC000281092425   -0.1200
      5 C5         -8.9237   -2.4746   61.0552 C.ar    1  ZINC000281092425    0.0200
      6 C6         -8.8781   -1.3802   61.8972 C.ar    1  ZINC000281092425   -0.2200
      7 C7         -9.8240   -0.3698   61.7760 C.ar    1  ZINC000281092425    0.3000
      8 N8         -9.7780    0.7370   62.6268 N.pl3   1  ZINC000281092425   -0.7200
      9 C9        -10.2190    0.6101   64.0181 C.3     1  ZINC000281092425    0.1200
     10 C10        -9.3635    1.5135   64.9086 C.3     1  ZINC000281092425   -0.0900
     11 H11        -9.1593    2.4489   64.3877 H       1  ZINC000281092425    0.0900
     12 C12       -10.1147    1.8071   66.2087 C.3     1  ZINC000281092425    0.0800
     13 O13       -10.8577    3.0194   66.0661 O.3     1  ZINC000281092425   -0.5700
     14 C14        -8.0433    0.8102   65.2300 C.3     1  ZINC000281092425   -0.1100
     15 H15        -7.5882    0.4100   64.3239 H       1  ZINC000281092425    0.0900
     16 C16        -7.0674    1.7730   65.9597 C.3     1  ZINC000281092425   -0.1600
     17 C17        -6.2229    0.7677   66.7826 C.3     1  ZINC000281092425    0.0500
     18 O18        -7.1468   -0.2548   67.1879 O.3     1  ZINC000281092425   -0.3900
     19 C19        -8.2553   -0.3045   66.2767 C.3     1  ZINC000281092425    0.0700
     20 C20       -10.8149   -0.4616   60.8079 C.ar    1  ZINC000281092425   -0.2800
     21 C21       -10.8540   -1.5587   59.9623 C.ar    1  ZINC000281092425    0.2300
     22 O22       -11.8224   -1.6514   59.0133 O.3     1  ZINC000281092425   -0.2900
     23 C23       -11.7209   -0.7681   57.8945 C.3     1  ZINC000281092425    0.4100
     24 F24       -10.4472   -0.8793   57.3266 F       1  ZINC000281092425   -0.1900
     25 F25       -12.6875   -1.1088   56.9422 F       1  ZINC000281092425   -0.1900
     26 H26        -8.1876   -3.2591   61.1507 H       1  ZINC000281092425    0.1600
     27 H27        -8.1071   -1.3101   62.6501 H       1  ZINC000281092425    0.1500
     28 H28        -9.4541    1.5895   62.2965 H       1  ZINC000281092425    0.4100
     29 H29       -11.2646    0.9078   64.0963 H       1  ZINC000281092425    0.0800
     30 H30       -10.1109   -0.4254   64.3405 H       1  ZINC000281092425    0.0800
     31 H31       -10.7974    0.9860   66.4272 H       1  ZINC000281092425    0.0500
     32 H32        -9.4003    1.9127   67.0252 H       1  ZINC000281092425    0.0500
     33 H33       -10.3114    3.7965   65.8853 H       1  ZINC000281092425    0.3800
     34 H34        -6.4467    2.3172   65.2478 H       1  ZINC000281092425    0.0800
     35 H35        -7.6071    2.4592   66.6124 H       1  ZINC000281092425    0.0800
     36 H36        -5.4338    0.3408   66.1636 H       1  ZINC000281092425    0.0600
     37 H37        -5.7951    1.2592   67.6563 H       1  ZINC000281092425    0.0900
     38 H38        -9.1859   -0.1292   66.8165 H       1  ZINC000281092425    0.0800
     39 H39        -8.2882   -1.2780   65.7873 H       1  ZINC000281092425    0.0700
     40 H40       -11.5514    0.3224   60.7115 H       1  ZINC000281092425    0.1500
     41 H41       -11.8829    0.2577   58.2256 H       1  ZINC000281092425    0.1900
@<TRIPOS>BOND
     1     1     2    2
     2     2     3    2
     3     2     4    1
     4     4    21   ar
     5     4     5   ar
     6     5     6   ar
     7     5    26    1
     8     6     7   ar
     9     6    27    1
    10     7     8    1
    11     7    20   ar
    12     8     9    1
    13     8    28    1
    14     9    10    1
    15     9    29    1
    16     9    30    1
    17    10    11    1
    18    10    12    1
    19    10    14    1
    20    12    13    1
    21    12    31    1
    22    12    32    1
    23    13    33    1
    24    14    15    1
    25    14    19    1
    26    14    16    1
    27    16    17    1
    28    16    34    1
    29    16    35    1
    30    17    18    1
    31    17    36    1
    32    17    37    1
    33    18    19    1
    34    19    38    1
    35    19    39    1
    36    20    21   ar
    37    20    40    1
    38    21    22    1
    39    22    23    1
    40    23    24    1
    41    23    25    1
    42    23    41    1
@<TRIPOS>SUBSTRUCTURE
     1 ZINC000281092425        1 TEMP              0 ****  ****    0 ROOT


##########                                Name:    ZINC000572148596
##########                DOCK_Rotatable_Bonds:                   4
##########                         Heavy_Atoms:                  26
##########                    Molecular_Weight:             371.463
##########                DOCK_Rotatable_Bonds:                   4
##########                       Formal_Charge:          -0.0199999
##########                     HBond_Acceptors:                   8
##########                        HBond_Donors:                   0
##########                         Heavy_Atoms:                  26
##########                          Grid_Score:          -31.696661
##########                     Grid_vdw_energy:          -30.988651
##########                      Grid_es_energy:           -0.708010
##########           Internal_energy_repulsive:            6.971049

@<TRIPOS>MOLECULE
ZINC000572148596
 47 50 1 0 0
SMALL
USER_CHARGES


@<TRIPOS>ATOM
      1 C1         -7.7944    1.2203   65.0173 C.3     1  ZINC000572148596   -0.1400
      2 C2         -9.0210    1.3708   64.1151 C.3     1  ZINC000572148596    0.0800
      3 H3         -8.9375    2.2925   63.5391 H       1  ZINC000572148596    0.1200
      4 C4         -9.0999    0.1961   63.1745 C.2     1  ZINC000572148596    0.1800
      5 N5         -8.5932   -0.9845   63.3766 N.2     1  ZINC000572148596   -0.3500
      6 O6         -8.8254   -1.7132   62.4353 O.3     1  ZINC000572148596    0.0900
      7 C7         -9.5282   -1.0441   61.5079 C.2     1  ZINC000572148596    0.2300
      8 C8        -10.0095   -1.5714   60.2158 C.ar    1  ZINC000572148596   -0.1200
      9 C9         -9.7132   -2.8867   59.8295 C.ar    1  ZINC000572148596   -0.0100
     10 C10       -10.1803   -3.3339   58.6222 C.ar    1  ZINC000572148596   -0.1900
     11 C11       -10.9297   -2.4772   57.8193 C.ar    1  ZINC000572148596    0.3400
     12 N12       -11.4044   -2.9269   56.5969 N.3     1  ZINC000572148596   -0.4700
     13 C13       -11.7802   -1.8000   55.7308 C.3     1  ZINC000572148596    0.0300
     14 C14       -12.2413   -2.3380   54.3736 C.3     1  ZINC000572148596    0.0900
     15 H15       -12.5748   -1.5100   53.7480 H       1  ZINC000572148596    0.1100
     16 C16       -11.0791   -3.0599   53.6886 C.3     1  ZINC000572148596   -0.1800
     17 O17       -13.3225   -3.2528   54.5714 O.3     1  ZINC000572148596   -0.3700
     18 C18       -12.9913   -4.3631   55.4098 C.3     1  ZINC000572148596    0.0800
     19 H19       -12.1854   -4.9369   54.9523 H       1  ZINC000572148596    0.0700
     20 C20       -14.2207   -5.2573   55.5828 C.3     1  ZINC000572148596   -0.1400
     21 C21       -12.5379   -3.8456   56.7775 C.3     1  ZINC000572148596    0.0300
     22 N22       -11.1958   -1.2380   58.2083 N.ar    1  ZINC000572148596   -0.5200
     23 C23       -10.7709   -0.7703   59.3638 C.ar    1  ZINC000572148596    0.1900
     24 N24        -9.7107    0.1773   61.9798 N.2     1  ZINC000572148596   -0.4700
     25 C25       -10.2655    1.4197   64.9634 C.2     1  ZINC000572148596    0.0400
     26 N26       -10.2937    1.7264   66.2164 N.2     1  ZINC000572148596   -0.4500
     27 C27       -11.4702    1.7217   66.8099 C.2     1  ZINC000572148596    0.0400
     28 C28       -12.4915    1.3928   66.0131 C.2     1  ZINC000572148596   -0.2500
     29 S29       -11.8457    1.0841   64.4031 S.3     1  ZINC000572148596    0.1400
     30 H30        -7.8779    0.2987   65.5933 H       1  ZINC000572148596    0.0800
     31 H31        -6.8943    1.1851   64.4037 H       1  ZINC000572148596    0.0700
     32 H32        -7.7373    2.0701   65.6976 H       1  ZINC000572148596    0.0800
     33 H33        -9.1297   -3.5320   60.4694 H       1  ZINC000572148596    0.1500
     34 H34        -9.9690   -4.3415   58.2955 H       1  ZINC000572148596    0.1500
     35 H35       -12.5916   -1.2392   56.1946 H       1  ZINC000572148596    0.0600
     36 H36       -10.9193   -1.1465   55.5897 H       1  ZINC000572148596    0.1000
     37 H37       -10.7470   -3.8886   54.3139 H       1  ZINC000572148596    0.0700
     38 H38       -11.4079   -3.4427   52.7225 H       1  ZINC000572148596    0.0600
     39 H39       -10.2542   -2.3625   53.5415 H       1  ZINC000572148596    0.0700
     40 H40       -14.5445   -5.6223   54.6082 H       1  ZINC000572148596    0.0700
     41 H41       -13.9676   -6.1033   56.2218 H       1  ZINC000572148596    0.0700
     42 H42       -15.0258   -4.6834   56.0417 H       1  ZINC000572148596    0.0600
     43 H43       -12.2301   -4.6852   57.4005 H       1  ZINC000572148596    0.1000
     44 H44       -13.3615   -3.3175   57.2580 H       1  ZINC000572148596    0.0600
     45 H45       -11.0055    0.2443   59.6501 H       1  ZINC000572148596    0.1700
     46 H46       -11.5987    1.9636   67.8546 H       1  ZINC000572148596    0.1800
     47 H47       -13.5299    1.3310   66.3038 H       1  ZINC000572148596    0.1800
@<TRIPOS>BOND
     1     1     2    1
     2     1    30    1
     3     1    31    1
     4     1    32    1
     5     2     3    1
     6     2     4    1
     7     2    25    1
     8     4    24    1
     9     4     5    2
    10     5     6    1
    11     6     7    1
    12     7     8    1
    13     7    24    2
    14     8    23   ar
    15     8     9   ar
    16     9    10   ar
    17     9    33    1
    18    10    11   ar
    19    10    34    1
    20    11    12    1
    21    11    22   ar
    22    12    21    1
    23    12    13    1
    24    13    14    1
    25    13    35    1
    26    13    36    1
    27    14    15    1
    28    14    16    1
    29    14    17    1
    30    16    37    1
    31    16    38    1
    32    16    39    1
    33    17    18    1
    34    18    19    1
    35    18    20    1
    36    18    21    1
    37    20    40    1
    38    20    41    1
    39    20    42    1
    40    21    43    1
    41    21    44    1
    42    22    23   ar
    43    23    45    1
    44    25    29    1
    45    25    26    2
    46    26    27    1
    47    27    28    2
    48    27    46    1
    49    28    29    1
    50    28    47    1
@<TRIPOS>SUBSTRUCTURE
     1 ZINC000572148596        1 TEMP              0 ****  ****    0 ROOT


##########                                Name:    ZINC000542980334
##########                DOCK_Rotatable_Bonds:                   6
##########                         Heavy_Atoms:                  27
##########                    Molecular_Weight:             404.795
##########                DOCK_Rotatable_Bonds:                   6
##########                       Formal_Charge:           0.0300001
##########                     HBond_Acceptors:                  10
##########                        HBond_Donors:                   1
##########                         Heavy_Atoms:                  27
##########                          Grid_Score:          -31.695467
##########                     Grid_vdw_energy:          -31.070820
##########                      Grid_es_energy:           -0.624647
##########           Internal_energy_repulsive:           12.068204

@<TRIPOS>MOLECULE
ZINC000542980334
 44 46 1 0 0
SMALL
USER_CHARGES


@<TRIPOS>ATOM
      1 O1        -13.8146   -3.0584   55.8038 O.2     1  ZINC000542980334   -0.5800
      2 C2        -12.8907   -2.2697   55.7509 C.2     1  ZINC000542980334    0.7100
      3 N3        -12.2231   -1.9376   56.8736 N.am    1  ZINC000542980334   -0.7400
      4 C4        -12.6144   -2.5223   58.1586 C.3     1  ZINC000542980334    0.1800
      5 C5        -11.4101   -2.6040   59.0609 C.ar    1  ZINC000542980334   -0.1400
      6 C6        -11.1792   -1.6128   59.9990 C.ar    1  ZINC000542980334    0.1300
      7 F7        -12.0332   -0.5714   60.1062 F       1  ZINC000542980334   -0.1200
      8 C8        -10.0724   -1.6893   60.8279 C.ar    1  ZINC000542980334   -0.1500
      9 C9         -9.1994   -2.7548   60.7183 C.ar    1  ZINC000542980334   -0.0700
     10 C10        -9.4300   -3.7448   59.7814 C.ar    1  ZINC000542980334   -0.1200
     11 C11       -10.5380   -3.6727   58.9560 C.ar    1  ZINC000542980334    0.0100
     12 Cl12      -10.8270   -4.9167   57.7802 Cl      1  ZINC000542980334   -0.0400
     13 N13       -12.5307   -1.7318   54.5687 N.am    1  ZINC000542980334   -0.6300
     14 C14       -13.2489   -2.0841   53.3363 C.3     1  ZINC000542980334    0.1100
     15 C15       -12.2341   -2.5662   52.2950 C.3     1  ZINC000542980334   -0.1300
     16 C16       -11.1534   -1.4986   52.1094 C.3     1  ZINC000542980334   -0.1300
     17 C17       -10.4188   -1.2783   53.4337 C.3     1  ZINC000542980334    0.1400
     18 H18        -9.9763   -2.2177   53.7650 H       1  ZINC000542980334    0.1100
     19 N19        -9.3633   -0.2796   53.2471 N.pl3   1  ZINC000542980334   -0.3400
     20 C20        -9.0048    0.6719   54.1344 C.2     1  ZINC000542980334    0.0600
     21 C21        -7.9961    1.3882   53.5861 C.2     1  ZINC000542980334   -0.2300
     22 C22        -7.7290    0.8561   52.3204 C.2     1  ZINC000542980334   -0.0200
     23 C23        -6.6792    1.3493   51.3582 C.3     1  ZINC000542980334    0.5600
     24 F24        -6.1998    0.2753   50.6006 F       1  ZINC000542980334   -0.1700
     25 F25        -7.2402    2.3071   50.5066 F       1  ZINC000542980334   -0.1700
     26 F26        -5.6232    1.9232   52.0741 F       1  ZINC000542980334   -0.1600
     27 N27        -8.5439   -0.1474   52.1187 N.2     1  ZINC000542980334   -0.2300
     28 C28       -11.4167   -0.7773   54.4888 C.3     1  ZINC000542980334    0.1300
     29 H29       -11.4835   -1.3114   56.8308 H       1  ZINC000542980334    0.4000
     30 H30       -13.3761   -1.8976   58.6251 H       1  ZINC000542980334    0.0900
     31 H31       -13.0149   -3.5228   57.9957 H       1  ZINC000542980334    0.0900
     32 H32        -9.8914   -0.9161   61.5598 H       1  ZINC000542980334    0.1500
     33 H33        -8.3363   -2.8140   61.3647 H       1  ZINC000542980334    0.1500
     34 H34        -8.7470   -4.5769   59.6962 H       1  ZINC000542980334    0.1500
     35 H35       -13.9643   -2.8796   53.5450 H       1  ZINC000542980334    0.0800
     36 H36       -13.7742   -1.2079   52.9563 H       1  ZINC000542980334    0.0800
     37 H37       -11.7744   -3.4936   52.6370 H       1  ZINC000542980334    0.0800
     38 H38       -12.7412   -2.7395   51.3458 H       1  ZINC000542980334    0.0900
     39 H39       -10.4435   -1.8286   51.3508 H       1  ZINC000542980334    0.0800
     40 H40       -11.6165   -0.5646   51.7912 H       1  ZINC000542980334    0.0800
     41 H41        -9.4445    0.8331   55.1076 H       1  ZINC000542980334    0.1900
     42 H42        -7.4875    2.2234   54.0445 H       1  ZINC000542980334    0.1600
     43 H43       -11.7904    0.2054   54.2009 H       1  ZINC000542980334    0.0800
     44 H44       -10.9221   -0.7128   55.4580 H       1  ZINC000542980334    0.1100
@<TRIPOS>BOND
     1     1     2    2
     2     2     3   am
     3     2    13   am
     4     3     4    1
     5     3    29    1
     6     4     5    1
     7     4    30    1
     8     4    31    1
     9     5    11   ar
    10     5     6   ar
    11     6     7    1
    12     6     8   ar
    13     8     9   ar
    14     8    32    1
    15     9    10   ar
    16     9    33    1
    17    10    11   ar
    18    10    34    1
    19    11    12    1
    20    13    28    1
    21    13    14    1
    22    14    15    1
    23    14    35    1
    24    14    36    1
    25    15    16    1
    26    15    37    1
    27    15    38    1
    28    16    17    1
    29    16    39    1
    30    16    40    1
    31    17    18    1
    32    17    19    1
    33    17    28    1
    34    19    27    1
    35    19    20    1
    36    20    21    2
    37    20    41    1
    38    21    22    1
    39    21    42    1
    40    22    23    1
    41    22    27    2
    42    23    24    1
    43    23    25    1
    44    23    26    1
    45    28    43    1
    46    28    44    1
@<TRIPOS>SUBSTRUCTURE
     1 ZINC000542980334        1 TEMP              0 ****  ****    0 ROOT


##########                                Name:    ZINC001053792610
##########                DOCK_Rotatable_Bonds:                   5
##########                         Heavy_Atoms:                  25
##########                    Molecular_Weight:             347.374
##########                DOCK_Rotatable_Bonds:                   5
##########                       Formal_Charge:          -0.0400001
##########                     HBond_Acceptors:                   9
##########                        HBond_Donors:                   2
##########                         Heavy_Atoms:                  25
##########                          Grid_Score:          -31.687916
##########                     Grid_vdw_energy:          -27.857229
##########                      Grid_es_energy:           -3.830688
##########           Internal_energy_repulsive:            6.563228

@<TRIPOS>MOLECULE
ZINC001053792610
 46 49 1 0 0
SMALL
USER_CHARGES


@<TRIPOS>ATOM
      1 C1        -12.8715   -4.1983   54.1635 C.3     1  ZINC001053792610   -0.1000
      2 C2        -12.2441   -3.9145   55.5041 C.ar    1  ZINC001053792610    0.0800
      3 C3        -12.6671   -4.6049   56.6259 C.ar    1  ZINC001053792610    0.0600
      4 N4        -12.1171   -4.3560   57.8014 N.ar    1  ZINC001053792610   -0.4200
      5 C5        -11.1631   -3.4479   57.9054 C.ar    1  ZINC001053792610    0.0800
      6 C6        -10.5355   -3.1644   59.2458 C.3     1  ZINC001053792610    0.0700
      7 N7        -10.3836   -1.7135   59.4184 N.3     1  ZINC001053792610   -0.4500
      8 C8        -10.0563   -1.3787   60.8184 C.3     1  ZINC001053792610   -0.0100
      9 C9        -11.0336   -0.2105   60.7040 C.3     1  ZINC001053792610    0.0800
     10 C10       -11.6938   -1.0651   59.6239 C.3     1  ZINC001053792610   -0.0100
     11 C11       -11.8934    0.0479   61.9512 C.3     1  ZINC001053792610   -0.1500
     12 C12       -11.3251    1.4029   62.4596 C.3     1  ZINC001053792610    0.1100
     13 H13       -12.0859    1.9717   62.9942 H       1  ZINC001053792610    0.1200
     14 N14       -10.1398    1.1975   63.2957 N.am    1  ZINC001053792610   -0.7100
     15 C15        -9.9970    1.8887   64.4439 C.2     1  ZINC001053792610    0.5000
     16 O16       -10.8505    2.6797   64.7856 O.2     1  ZINC001053792610   -0.5100
     17 C17        -8.7769    1.6787   65.3030 C.3     1  ZINC001053792610    0.0800
     18 H18        -7.9519    2.2989   64.9527 H       1  ZINC001053792610    0.1300
     19 C19        -9.0952    1.9851   66.7793 C.3     1  ZINC001053792610    0.0500
     20 O20        -8.8582    0.7194   67.4612 O.3     1  ZINC001053792610   -0.3200
     21 C21        -8.4660   -0.1998   66.5719 C.2     1  ZINC001053792610    0.6500
     22 O22        -8.2022   -1.3462   66.8759 O.2     1  ZINC001053792610   -0.5100
     23 N23        -8.3893    0.2599   65.3121 N.am    1  ZINC001053792610   -0.7100
     24 C24       -10.9527    2.0897   61.1207 C.3     1  ZINC001053792610    0.0400
     25 O25       -10.4804    1.0284   60.2714 O.3     1  ZINC001053792610   -0.3300
     26 C26       -10.7400   -2.7572   56.7833 C.ar    1  ZINC001053792610    0.0600
     27 N27       -11.2862   -3.0100   55.6071 N.ar    1  ZINC001053792610   -0.4400
     28 H28       -12.3176   -4.9934   53.6642 H       1  ZINC001053792610    0.0800
     29 H29       -13.9062   -4.5102   54.3053 H       1  ZINC001053792610    0.0800
     30 H30       -12.8442   -3.2968   53.5515 H       1  ZINC001053792610    0.0800
     31 H31       -13.4471   -5.3470   56.5408 H       1  ZINC001053792610    0.1700
     32 H32       -11.1734   -3.5595   60.0365 H       1  ZINC001053792610    0.1000
     33 H33        -9.5565   -3.6408   59.2968 H       1  ZINC001053792610    0.0600
     34 H34       -10.3704   -2.1401   61.5323 H       1  ZINC001053792610    0.0800
     35 H35        -9.0214   -1.0674   60.9604 H       1  ZINC001053792610    0.0900
     36 H36       -12.0343   -0.4904   58.7626 H       1  ZINC001053792610    0.1000
     37 H37       -12.4572   -1.7404   60.0101 H       1  ZINC001053792610    0.0800
     38 H38       -12.9462    0.1423   61.6856 H       1  ZINC001053792610    0.1000
     39 H39       -11.7493   -0.7376   62.6930 H       1  ZINC001053792610    0.1000
     40 H40        -9.4578    0.5639   63.0230 H       1  ZINC001053792610    0.4000
     41 H41        -8.4269    2.7563   67.1622 H       1  ZINC001053792610    0.1200
     42 H42       -10.1357    2.2901   66.8906 H       1  ZINC001053792610    0.1100
     43 H43        -8.1244   -0.2600   64.5371 H       1  ZINC001053792610    0.4400
     44 H44       -11.8307    2.5633   60.6814 H       1  ZINC001053792610    0.0800
     45 H45       -10.1647    2.8259   61.2796 H       1  ZINC001053792610    0.0900
     46 H46        -9.9602   -2.0148   56.8683 H       1  ZINC001053792610    0.1600
@<TRIPOS>BOND
     1     1     2    1
     2     1    28    1
     3     1    29    1
     4     1    30    1
     5     2    27   ar
     6     2     3   ar
     7     3     4   ar
     8     3    31    1
     9     4     5   ar
    10     5     6    1
    11     5    26   ar
    12     6     7    1
    13     6    32    1
    14     6    33    1
    15     7    10    1
    16     7     8    1
    17     8     9    1
    18     8    34    1
    19     8    35    1
    20     9    25    1
    21     9    10    1
    22     9    11    1
    23    10    36    1
    24    10    37    1
    25    11    12    1
    26    11    38    1
    27    11    39    1
    28    12    13    1
    29    12    14    1
    30    12    24    1
    31    14    15   am
    32    14    40    1
    33    15    16    2
    34    15    17    1
    35    17    18    1
    36    17    23    1
    37    17    19    1
    38    19    20    1
    39    19    41    1
    40    19    42    1
    41    20    21    1
    42    21    22    2
    43    21    23   am
    44    23    43    1
    45    24    25    1
    46    24    44    1
    47    24    45    1
    48    26    27   ar
    49    26    46    1
@<TRIPOS>SUBSTRUCTURE
     1 ZINC001053792610        1 TEMP              0 ****  ****    0 ROOT


##########                                Name:    ZINC001078748831
##########                DOCK_Rotatable_Bonds:                   6
##########                         Heavy_Atoms:                  23
##########                    Molecular_Weight:             333.417
##########                DOCK_Rotatable_Bonds:                   6
##########                       Formal_Charge:           0.0299999
##########                     HBond_Acceptors:                   9
##########                        HBond_Donors:                   2
##########                         Heavy_Atoms:                  23
##########                          Grid_Score:          -31.674366
##########                     Grid_vdw_energy:          -30.387583
##########                      Grid_es_energy:           -1.286783
##########           Internal_energy_repulsive:            6.338823

@<TRIPOS>MOLECULE
ZINC001078748831
 42 45 1 0 0
SMALL
USER_CHARGES


@<TRIPOS>ATOM
      1 C1        -10.1886    0.5730   62.5436 C.3     1  ZINC001078748831    0.1000
      2 N2         -9.9156   -0.6742   61.8250 N.pl3   1  ZINC001078748831   -0.1400
      3 N3         -8.8858   -1.4171   62.0235 N.2     1  ZINC001078748831   -0.2900
      4 C4         -8.9442   -2.4530   61.2217 C.2     1  ZINC001078748831    0.0400
      5 C5        -10.1317   -2.2966   60.4793 C.2     1  ZINC001078748831   -0.0500
      6 C6        -10.6599   -3.2004   59.4359 C.2     1  ZINC001078748831    0.6200
      7 O7        -10.2641   -4.3478   59.3686 O.2     1  ZINC001078748831   -0.5200
      8 N8        -11.5802   -2.7524   58.5592 N.am    1  ZINC001078748831   -0.7000
      9 C9        -12.1025   -3.6478   57.5239 C.3     1  ZINC001078748831    0.1500
     10 H10       -12.0776   -4.6969   57.8188 H       1  ZINC001078748831    0.1100
     11 C11       -11.5143   -3.3850   56.1256 C.3     1  ZINC001078748831   -0.1800
     12 C12       -12.6726   -2.3954   55.9044 C.3     1  ZINC001078748831    0.0800
     13 H13       -12.4444   -1.3772   56.2194 H       1  ZINC001078748831    0.1000
     14 N14       -13.2537   -2.4596   54.5568 N.3     1  ZINC001078748831   -0.6700
     15 C15       -12.9277   -1.2530   53.7848 C.3     1  ZINC001078748831    0.1400
     16 C16       -11.5790   -1.4222   53.1339 C.2     1  ZINC001078748831    0.0600
     17 N17       -10.7898   -0.4301   52.8277 N.2     1  ZINC001078748831   -0.5700
     18 S18        -9.4973   -1.0121   52.1763 S.3     1  ZINC001078748831    0.6800
     19 N19        -9.8593   -2.5279   52.2444 N.2     1  ZINC001078748831   -0.5700
     20 C20       -11.0341   -2.6461   52.7982 C.2     1  ZINC001078748831    0.0500
     21 C21       -13.4482   -3.2033   56.9498 C.3     1  ZINC001078748831   -0.1000
     22 C22       -14.5078   -4.2242   56.5336 C.3     1  ZINC001078748831   -0.1000
     23 C23       -15.2071   -3.9135   57.8694 C.3     1  ZINC001078748831   -0.1400
     24 C24       -14.5070   -2.5429   57.8334 C.3     1  ZINC001078748831   -0.1200
     25 N25       -10.6777   -1.1721   60.9168 N.2     1  ZINC001078748831   -0.2500
     26 H26       -10.7688    0.3560   63.4405 H       1  ZINC001078748831    0.1000
     27 H27        -9.2466    1.0436   62.8254 H       1  ZINC001078748831    0.1100
     28 H28       -10.7533    1.2472   61.8997 H       1  ZINC001078748831    0.1100
     29 H29        -8.2295   -3.2592   61.1456 H       1  ZINC001078748831    0.2100
     30 H30       -11.8968   -1.8372   58.6136 H       1  ZINC001078748831    0.4100
     31 H31       -10.5333   -2.9102   56.1474 H       1  ZINC001078748831    0.0700
     32 H32       -11.5505   -4.2529   55.4672 H       1  ZINC001078748831    0.1000
     33 H33       -12.9517   -3.2915   54.0721 H       1  ZINC001078748831    0.3500
     34 H34       -13.6851   -1.0976   53.0165 H       1  ZINC001078748831    0.1000
     35 H35       -12.9039   -0.3907   54.4512 H       1  ZINC001078748831    0.0600
     36 H36       -11.5268   -3.5919   52.9691 H       1  ZINC001078748831    0.2000
     37 H37       -15.0838   -3.9245   55.6581 H       1  ZINC001078748831    0.1000
     38 H38       -14.1294   -5.2440   56.4647 H       1  ZINC001078748831    0.0700
     39 H39       -16.2924   -3.8509   57.7892 H       1  ZINC001078748831    0.0700
     40 H40       -14.8790   -4.5493   58.6917 H       1  ZINC001078748831    0.0800
     41 H41       -14.1280   -2.2197   58.8030 H       1  ZINC001078748831    0.0700
     42 H42       -15.0828   -1.7706   57.3234 H       1  ZINC001078748831    0.0900
@<TRIPOS>BOND
     1     1     2    1
     2     1    26    1
     3     1    27    1
     4     1    28    1
     5     2    25    1
     6     2     3    1
     7     3     4    2
     8     4     5    1
     9     4    29    1
    10     5     6    1
    11     5    25    2
    12     6     7    2
    13     6     8   am
    14     8     9    1
    15     8    30    1
    16     9    10    1
    17     9    21    1
    18     9    11    1
    19    11    12    1
    20    11    31    1
    21    11    32    1
    22    12    13    1
    23    12    14    1
    24    12    21    1
    25    14    15    1
    26    14    33    1
    27    15    16    1
    28    15    34    1
    29    15    35    1
    30    16    20    1
    31    16    17    2
    32    17    18    1
    33    18    19    1
    34    19    20    2
    35    20    36    1
    36    21    24    1
    37    21    22    1
    38    22    23    1
    39    22    37    1
    40    22    38    1
    41    23    24    1
    42    23    39    1
    43    23    40    1
    44    24    41    1
    45    24    42    1
@<TRIPOS>SUBSTRUCTURE
     1 ZINC001078748831        1 TEMP              0 ****  ****    0 ROOT


##########                                Name:    ZINC001312809190
##########                DOCK_Rotatable_Bonds:                   6
##########                         Heavy_Atoms:                  29
##########                    Molecular_Weight:             395.501
##########                DOCK_Rotatable_Bonds:                   6
##########                       Formal_Charge:           0.0199995
##########                     HBond_Acceptors:                   6
##########                        HBond_Donors:                   1
##########                         Heavy_Atoms:                  29
##########                          Grid_Score:          -31.673599
##########                     Grid_vdw_energy:          -31.881573
##########                      Grid_es_energy:            0.207974
##########           Internal_energy_repulsive:           24.256042

@<TRIPOS>MOLECULE
ZINC001312809190
 58 61 1 0 0
SMALL
USER_CHARGES


@<TRIPOS>ATOM
      1 C1         -6.8972    0.7126   50.2721 C.3     1  ZINC001312809190    0.0300
      2 O2         -5.7014    1.3146   50.7717 O.3     1  ZINC001312809190   -0.3200
      3 C3         -5.8406    2.2296   51.7668 C.ar    1  ZINC001312809190    0.1300
      4 C4         -4.7227    2.8615   52.2910 C.ar    1  ZINC001312809190   -0.2100
      5 C5         -4.8670    3.7918   53.3023 C.ar    1  ZINC001312809190   -0.0800
      6 C6         -6.1242    4.0926   53.7922 C.ar    1  ZINC001312809190   -0.1300
      7 C7         -7.2404    3.4636   53.2715 C.ar    1  ZINC001312809190   -0.0500
      8 C8         -8.6094    3.7935   53.8082 C.3     1  ZINC001312809190    0.1200
      9 H9         -9.3648    3.2668   53.2251 H       1  ZINC001312809190    0.0500
     10 C10        -8.8470    5.3016   53.7071 C.3     1  ZINC001312809190   -0.1400
     11 N11        -8.6977    3.3770   55.2142 N.3     1  ZINC001312809190   -0.5300
     12 C12        -8.2110    2.0019   55.3874 C.3     1  ZINC001312809190    0.0300
     13 C13        -8.1490    1.6700   56.8821 C.3     1  ZINC001312809190    0.1400
     14 N14        -9.4664    1.9429   57.4763 N.am    1  ZINC001312809190   -0.6300
     15 C15       -10.0926    1.0148   58.2266 C.2     1  ZINC001312809190    0.7100
     16 O16       -11.1815    1.2574   58.7101 O.2     1  ZINC001312809190   -0.5800
     17 N17        -9.5117   -0.1824   58.4410 N.am    1  ZINC001312809190   -0.7300
     18 C18       -10.1923   -1.1912   59.2565 C.3     1  ZINC001312809190    0.1800
     19 H19       -11.0261   -0.7500   59.8026 H       1  ZINC001312809190    0.1200
     20 C20       -10.6585   -2.3542   58.4024 C.ar    1  ZINC001312809190   -0.1900
     21 C21       -11.3206   -2.4085   57.1962 C.ar    1  ZINC001312809190   -0.0500
     22 C22       -11.6212   -3.6336   56.6270 C.ar    1  ZINC001312809190   -0.1500
     23 C23       -11.2546   -4.7993   57.2733 C.ar    1  ZINC001312809190   -0.0800
     24 C24       -10.5944   -4.7472   58.4837 C.ar    1  ZINC001312809190   -0.1400
     25 C25       -10.2912   -3.5188   59.0649 C.ar    1  ZINC001312809190    0.1100
     26 O26        -9.6710   -3.2401   60.2443 O.3     1  ZINC001312809190   -0.2900
     27 C27        -9.2011   -1.8808   60.2237 C.3     1  ZINC001312809190    0.0800
     28 H28        -8.1840   -1.8297   59.8350 H       1  ZINC001312809190    0.0900
     29 C29        -9.2773   -1.2598   61.6198 C.3     1  ZINC001312809190   -0.1500
     30 C30       -10.0823    3.2558   57.2304 C.3     1  ZINC001312809190    0.1200
     31 C31       -10.0681    3.5253   55.7220 C.3     1  ZINC001312809190    0.0400
     32 C32        -7.1020    2.5374   52.2562 C.ar    1  ZINC001312809190   -0.1500
     33 H33        -6.6450    0.0035   49.4836 H       1  ZINC001312809190    0.1000
     34 H34        -7.4065    0.1897   51.0816 H       1  ZINC001312809190    0.0600
     35 H35        -7.5523    1.4853   49.8698 H       1  ZINC001312809190    0.0600
     36 H36        -3.7402    2.6263   51.9093 H       1  ZINC001312809190    0.1300
     37 H37        -3.9968    4.2841   53.7108 H       1  ZINC001312809190    0.1300
     38 H38        -6.2350    4.8198   54.5829 H       1  ZINC001312809190    0.1300
     39 H39        -8.0915    5.8283   54.2903 H       1  ZINC001312809190    0.0700
     40 H40        -8.7814    5.6107   52.6639 H       1  ZINC001312809190    0.0600
     41 H41        -9.8372    5.5402   54.0953 H       1  ZINC001312809190    0.0600
     42 H42        -8.8902    1.3102   54.8891 H       1  ZINC001312809190    0.0400
     43 H43        -7.2154    1.9110   54.9530 H       1  ZINC001312809190    0.1000
     44 H44        -7.8990    0.6172   57.0134 H       1  ZINC001312809190    0.1000
     45 H45        -7.3941    2.2912   57.3641 H       1  ZINC001312809190    0.0700
     46 H46        -8.6430   -0.3760   58.0551 H       1  ZINC001312809190    0.4000
     47 H47       -11.6054   -1.4953   56.6948 H       1  ZINC001312809190    0.1200
     48 H48       -12.1406   -3.6787   55.6812 H       1  ZINC001312809190    0.1300
     49 H49       -11.4866   -5.7557   56.8288 H       1  ZINC001312809190    0.1300
     50 H50       -10.3119   -5.6627   58.9823 H       1  ZINC001312809190    0.1300
     51 H51        -8.6382   -1.8202   62.3022 H       1  ZINC001312809190    0.0800
     52 H52        -8.9413   -0.2238   61.5755 H       1  ZINC001312809190    0.0800
     53 H53       -10.3068   -1.2929   61.9766 H       1  ZINC001312809190    0.0700
     54 H54       -11.1105    3.2513   57.5920 H       1  ZINC001312809190    0.0800
     55 H55        -9.5132    4.0294   57.7459 H       1  ZINC001312809190    0.0800
     56 H56       -10.4194    4.5391   55.5304 H       1  ZINC001312809190    0.0900
     57 H57       -10.7214    2.8123   55.2191 H       1  ZINC001312809190    0.0400
     58 H58        -7.9740    2.0467   51.8497 H       1  ZINC001312809190    0.1300
@<TRIPOS>BOND
     1     1     2    1
     2     1    33    1
     3     1    34    1
     4     1    35    1
     5     2     3    1
     6     3    32   ar
     7     3     4   ar
     8     4     5   ar
     9     4    36    1
    10     5     6   ar
    11     5    37    1
    12     6     7   ar
    13     6    38    1
    14     7     8    1
    15     7    32   ar
    16     8     9    1
    17     8    10    1
    18     8    11    1
    19    10    39    1
    20    10    40    1
    21    10    41    1
    22    11    31    1
    23    11    12    1
    24    12    13    1
    25    12    42    1
    26    12    43    1
    27    13    14    1
    28    13    44    1
    29    13    45    1
    30    14    15   am
    31    14    30    1
    32    15    16    2
    33    15    17   am
    34    17    18    1
    35    17    46    1
    36    18    19    1
    37    18    27    1
    38    18    20    1
    39    20    25   ar
    40    20    21   ar
    41    21    22   ar
    42    21    47    1
    43    22    23   ar
    44    22    48    1
    45    23    24   ar
    46    23    49    1
    47    24    25   ar
    48    24    50    1
    49    25    26    1
    50    26    27    1
    51    27    28    1
    52    27    29    1
    53    29    51    1
    54    29    52    1
    55    29    53    1
    56    30    31    1
    57    30    54    1
    58    30    55    1
    59    31    56    1
    60    31    57    1
    61    32    58    1
@<TRIPOS>SUBSTRUCTURE
     1 ZINC001312809190        1 TEMP              0 ****  ****    0 ROOT


##########                                Name:    ZINC000504638019
##########                DOCK_Rotatable_Bonds:                   8
##########                         Heavy_Atoms:                  24
##########                    Molecular_Weight:             328.454
##########                DOCK_Rotatable_Bonds:                   8
##########                       Formal_Charge:        -1.49012e-08
##########                     HBond_Acceptors:                   4
##########                        HBond_Donors:                   1
##########                         Heavy_Atoms:                  24
##########                          Grid_Score:          -31.669024
##########                     Grid_vdw_energy:          -30.889013
##########                      Grid_es_energy:           -0.780010
##########           Internal_energy_repulsive:           14.453691

@<TRIPOS>MOLECULE
ZINC000504638019
 52 53 1 0 0
SMALL
USER_CHARGES


@<TRIPOS>ATOM
      1 C1         -8.9096   -2.7181   60.4662 C.3     1  ZINC000504638019   -0.1200
      2 C2         -9.9803   -3.1309   59.4892 C.ar    1  ZINC000504638019   -0.0900
      3 C3        -11.1618   -2.4171   59.4164 C.ar    1  ZINC000504638019   -0.1200
      4 C4        -12.1439   -2.7957   58.5203 C.ar    1  ZINC000504638019   -0.1100
      5 C5        -11.9442   -3.8879   57.6967 C.ar    1  ZINC000504638019   -0.0900
      6 C6        -13.0150   -4.3009   56.7201 C.3     1  ZINC000504638019   -0.0600
      7 H7        -12.7118   -5.2177   56.2146 H       1  ZINC000504638019    0.0900
      8 C8        -14.3254   -4.5427   57.4722 C.3     1  ZINC000504638019   -0.1500
      9 C9        -13.2178   -3.1915   55.6862 C.3     1  ZINC000504638019    0.1300
     10 N10       -11.9564   -2.9416   54.9843 N.am    1  ZINC000504638019   -0.7000
     11 C11       -11.9563   -2.2655   53.8184 C.2     1  ZINC000504638019    0.5100
     12 O12       -13.0011   -1.8624   53.3508 O.2     1  ZINC000504638019   -0.5100
     13 C13       -10.6698   -2.0122   53.1014 C.2     1  ZINC000504638019    0.5100
     14 O14       -10.2126   -2.8561   52.3589 O.2     1  ZINC000504638019   -0.5200
     15 N15       -10.0173   -0.8464   53.2794 N.am    1  ZINC000504638019   -0.5800
     16 C16        -8.7561   -0.5982   52.5766 C.3     1  ZINC000504638019    0.0600
     17 C17       -10.5692    0.1725   54.1757 C.3     1  ZINC000504638019    0.1100
     18 C18        -9.5089    0.5777   55.2015 C.3     1  ZINC000504638019   -0.1000
     19 H19        -8.6424   -0.0774   55.1112 H       1  ZINC000504638019    0.0800
     20 C20       -10.0906    0.4697   56.6127 C.3     1  ZINC000504638019   -0.0800
     21 C21        -9.1636    1.1096   57.6044 C.2     1  ZINC000504638019   -0.1500
     22 C22        -8.2168    1.9326   57.2857 C.2     1  ZINC000504638019   -0.1600
     23 C23        -7.9071    2.3542   55.8791 C.3     1  ZINC000504638019   -0.0900
     24 C24        -9.0838    2.0312   54.9571 C.3     1  ZINC000504638019   -0.1100
     25 C25       -10.7620   -4.6008   57.7685 C.ar    1  ZINC000504638019   -0.1100
     26 C26        -9.7784   -4.2199   58.6620 C.ar    1  ZINC000504638019   -0.1200
     27 H27        -8.2400   -2.0017   59.9902 H       1  ZINC000504638019    0.0700
     28 H28        -9.3723   -2.2581   61.3394 H       1  ZINC000504638019    0.0700
     29 H29        -8.3422   -3.5957   60.7756 H       1  ZINC000504638019    0.0700
     30 H30       -11.3178   -1.5639   60.0598 H       1  ZINC000504638019    0.1200
     31 H31       -13.0673   -2.2385   58.4639 H       1  ZINC000504638019    0.1200
     32 H32       -15.0999   -4.8414   56.7658 H       1  ZINC000504638019    0.0600
     33 H33       -14.1810   -5.3331   58.2087 H       1  ZINC000504638019    0.0600
     34 H34       -14.6286   -3.6259   57.9778 H       1  ZINC000504638019    0.0600
     35 H35       -13.9784   -3.4982   54.9684 H       1  ZINC000504638019    0.0800
     36 H36       -13.5400   -2.2800   56.1899 H       1  ZINC000504638019    0.0800
     37 H37       -11.1211   -3.2627   55.3588 H       1  ZINC000504638019    0.4100
     38 H38        -8.9660   -0.2253   51.5741 H       1  ZINC000504638019    0.0600
     39 H39        -8.1740    0.1423   53.1251 H       1  ZINC000504638019    0.0700
     40 H40        -8.1897   -1.5270   52.5075 H       1  ZINC000504638019    0.1100
     41 H41       -10.8650    1.0459   53.5946 H       1  ZINC000504638019    0.0900
     42 H42       -11.4394   -0.2314   54.6929 H       1  ZINC000504638019    0.0900
     43 H43       -11.0570    0.9729   56.6446 H       1  ZINC000504638019    0.0800
     44 H44       -10.2242   -0.5813   56.8690 H       1  ZINC000504638019    0.0600
     45 H45        -9.2949    0.8687   58.6489 H       1  ZINC000504638019    0.1000
     46 H46        -7.6121    2.3418   58.0816 H       1  ZINC000504638019    0.1000
     47 H47        -7.7139    3.4268   55.8576 H       1  ZINC000504638019    0.0700
     48 H48        -7.0223    1.8227   55.5291 H       1  ZINC000504638019    0.0700
     49 H49        -8.7811    2.1599   53.9179 H       1  ZINC000504638019    0.0700
     50 H50        -9.9192    2.6939   55.1833 H       1  ZINC000504638019    0.0700
     51 H51       -10.6058   -5.4538   57.1248 H       1  ZINC000504638019    0.1200
     52 H52        -8.8548   -4.7768   58.7181 H       1  ZINC000504638019    0.1200
@<TRIPOS>BOND
     1     1     2    1
     2     1    27    1
     3     1    28    1
     4     1    29    1
     5     2    26   ar
     6     2     3   ar
     7     3     4   ar
     8     3    30    1
     9     4     5   ar
    10     4    31    1
    11     5     6    1
    12     5    25   ar
    13     6     7    1
    14     6     8    1
    15     6     9    1
    16     8    32    1
    17     8    33    1
    18     8    34    1
    19     9    10    1
    20     9    35    1
    21     9    36    1
    22    10    11   am
    23    10    37    1
    24    11    12    2
    25    11    13    1
    26    13    14    2
    27    13    15   am
    28    15    16    1
    29    15    17    1
    30    16    38    1
    31    16    39    1
    32    16    40    1
    33    17    18    1
    34    17    41    1
    35    17    42    1
    36    18    19    1
    37    18    24    1
    38    18    20    1
    39    20    21    1
    40    20    43    1
    41    20    44    1
    42    21    22    2
    43    21    45    1
    44    22    23    1
    45    22    46    1
    46    23    24    1
    47    23    47    1
    48    23    48    1
    49    24    49    1
    50    24    50    1
    51    25    26   ar
    52    25    51    1
    53    26    52    1
@<TRIPOS>SUBSTRUCTURE
     1 ZINC000504638019        1 TEMP              0 ****  ****    0 ROOT


##########                                Name:    ZINC000054627026
##########                DOCK_Rotatable_Bonds:                   5
##########                         Heavy_Atoms:                  28
##########                    Molecular_Weight:              370.37
##########                DOCK_Rotatable_Bonds:                   5
##########                       Formal_Charge:         6.85453e-07
##########                     HBond_Acceptors:                   8
##########                        HBond_Donors:                   2
##########                         Heavy_Atoms:                  28
##########                          Grid_Score:          -31.659847
##########                     Grid_vdw_energy:          -30.239431
##########                      Grid_es_energy:           -1.420415
##########           Internal_energy_repulsive:            4.308082

@<TRIPOS>MOLECULE
ZINC000054627026
 42 46 1 0 0
SMALL
USER_CHARGES


@<TRIPOS>ATOM
      1 O1        -11.2931   -0.5927   62.3996 O.2     1  ZINC000054627026   -0.5200
      2 C2        -10.1133   -0.3958   62.6190 C.2     1  ZINC000054627026    0.6100
      3 N3         -9.1826   -0.8486   61.7557 N.am    1  ZINC000054627026   -0.6500
      4 C4         -9.5738   -1.5509   60.6090 C.ar    1  ZINC000054627026    0.1400
      5 C5         -9.7188   -2.9357   60.6608 C.ar    1  ZINC000054627026   -0.0900
      6 C6        -10.1037   -3.6391   59.5394 C.ar    1  ZINC000054627026   -0.0900
      7 C7        -10.3490   -2.9674   58.3505 C.ar    1  ZINC000054627026    0.0500
      8 N8        -10.7382   -3.3722   57.0855 N.pl3   1  ZINC000054627026   -0.5900
      9 C9        -10.8195   -2.2463   56.3076 C.2     1  ZINC000054627026    0.3700
     10 C10       -11.2019   -2.2240   54.8880 C.2     1  ZINC000054627026    0.0200
     11 C11       -12.1028   -3.0529   54.2886 C.2     1  ZINC000054627026   -0.1200
     12 C12       -12.1578   -2.6789   52.9337 C.2     1  ZINC000054627026   -0.2200
     13 C13       -11.2984   -1.6516   52.7711 C.2     1  ZINC000054627026   -0.0100
     14 O14       -10.7271   -1.3764   53.9534 O.3     1  ZINC000054627026   -0.1700
     15 N15       -10.5045   -1.1901   57.0228 N.2     1  ZINC000054627026   -0.4600
     16 C16       -10.2053   -1.5696   58.2887 C.ar    1  ZINC000054627026    0.0700
     17 C17        -9.8194   -0.8658   59.4338 C.ar    1  ZINC000054627026   -0.0900
     18 C18        -9.7012    0.3440   63.8266 C.2     1  ZINC000054627026   -0.1000
     19 C19        -8.4137    0.5725   64.2225 C.2     1  ZINC000054627026    0.1000
     20 N20        -8.4785    1.2818   65.3704 N.pl3   1  ZINC000054627026   -0.3100
     21 C21        -7.3945    1.7396   66.1330 C.ar    1  ZINC000054627026    0.1300
     22 C22        -7.6188    2.4557   67.3010 C.ar    1  ZINC000054627026   -0.1200
     23 C23        -6.5491    2.9050   68.0503 C.ar    1  ZINC000054627026   -0.1000
     24 C24        -5.2555    2.6425   67.6380 C.ar    1  ZINC000054627026   -0.1100
     25 C25        -5.0289    1.9299   66.4747 C.ar    1  ZINC000054627026   -0.1000
     26 C26        -6.0947    1.4728   65.7246 C.ar    1  ZINC000054627026   -0.1000
     27 N27        -9.8388    1.4724   65.6521 N.2     1  ZINC000054627026   -0.0500
     28 N28       -10.5288    0.9123   64.7206 N.2     1  ZINC000054627026   -0.2000
     29 H29        -8.2417   -0.6878   61.9285 H       1  ZINC000054627026    0.4200
     30 H30        -9.5281   -3.4611   61.5848 H       1  ZINC000054627026    0.1500
     31 H31       -10.2140   -4.7125   59.5862 H       1  ZINC000054627026    0.1300
     32 H32       -10.9189   -4.2822   56.8022 H       1  ZINC000054627026    0.4300
     33 H33       -12.6651   -3.8442   54.7621 H       1  ZINC000054627026    0.1600
     34 H34       -12.7719   -3.1293   52.1680 H       1  ZINC000054627026    0.1600
     35 H35       -11.1049   -1.1340   51.8431 H       1  ZINC000054627026    0.2100
     36 H36        -9.7110    0.2083   59.3994 H       1  ZINC000054627026    0.1400
     37 H37        -7.5169    0.2484   63.7157 H       1  ZINC000054627026    0.2100
     38 H38        -8.6289    2.6616   67.6233 H       1  ZINC000054627026    0.1400
     39 H39        -6.7230    3.4621   68.9590 H       1  ZINC000054627026    0.1400
     40 H40        -4.4206    2.9951   68.2253 H       1  ZINC000054627026    0.1400
     41 H41        -4.0176    1.7268   66.1551 H       1  ZINC000054627026    0.1400
     42 H42        -5.9171    0.9163   64.8162 H       1  ZINC000054627026    0.1400
@<TRIPOS>BOND
     1     1     2    2
     2     2     3   am
     3     2    18    1
     4     3     4    1
     5     3    29    1
     6     4    17   ar
     7     4     5   ar
     8     5     6   ar
     9     5    30    1
    10     6     7   ar
    11     6    31    1
    12     7    16   ar
    13     7     8    1
    14     8     9    1
    15     8    32    1
    16     9    10    1
    17     9    15    2
    18    10    14    1
    19    10    11    2
    20    11    12    1
    21    11    33    1
    22    12    13    2
    23    12    34    1
    24    13    14    1
    25    13    35    1
    26    15    16    1
    27    16    17   ar
    28    17    36    1
    29    18    28    1
    30    18    19    2
    31    19    20    1
    32    19    37    1
    33    20    21    1
    34    20    27    1
    35    21    26   ar
    36    21    22   ar
    37    22    23   ar
    38    22    38    1
    39    23    24   ar
    40    23    39    1
    41    24    25   ar
    42    24    40    1
    43    25    26   ar
    44    25    41    1
    45    26    42    1
    46    27    28    2
@<TRIPOS>SUBSTRUCTURE
     1 ZINC000054627026        1 TEMP              0 ****  ****    0 ROOT


##########                                Name:    ZINC000328606936
##########                DOCK_Rotatable_Bonds:                   6
##########                         Heavy_Atoms:                  23
##########                    Molecular_Weight:             338.428
##########                DOCK_Rotatable_Bonds:                   6
##########                       Formal_Charge:           0.0100001
##########                     HBond_Acceptors:                   7
##########                        HBond_Donors:                   2
##########                         Heavy_Atoms:                  23
##########                          Grid_Score:          -31.658428
##########                     Grid_vdw_energy:          -30.451410
##########                      Grid_es_energy:           -1.207018
##########           Internal_energy_repulsive:           11.749142

@<TRIPOS>MOLECULE
ZINC000328606936
 45 47 1 0 0
SMALL
USER_CHARGES


@<TRIPOS>ATOM
      1 C1         -2.8605    2.0022   45.1809 C.3     1  <0>        -0.0500
      2 N2         -1.4346    1.8542   45.5011 N.4     1  <0>        -0.3500
      3 H3         -0.9799    2.7526   45.4351 H       1  <0>         0.4200
      4 C4         -0.8139    0.9205   44.5520 C.3     1  <0>        -0.0900
      5 C5         -1.7486   -0.2344   44.2994 C.2     1  <0>         0.4900
      6 O6         -2.1804   -0.8851   45.2357 O.co2   1  <0>        -0.6700
      7 O7         -2.0731   -0.5178   43.1589 O.co2   1  <0>        -0.6400
      8 C8         -1.2909    1.3319   46.8666 C.3     1  <0>         0.0100
      9 H9         -1.7652    0.3540   46.9493 H       1  <0>         0.1600
     10 C10        -1.9070    2.3152   47.8849 C.3     1  <0>         0.1000
     11 N11        -1.0034    2.2545   49.0573 N.am    1  <0>        -0.6200
     12 C12        -1.3402    2.2658   50.3622 C.2     1  <0>         0.6200
     13 O13        -0.4735    2.2092   51.2148 O.2     1  <0>        -0.5100
     14 C14        -2.7502    2.3463   50.7546 C.2     1  <0>        -0.2800
     15 C15        -3.3251    3.3814   51.4261 C.2     1  <0>        -0.0300
     16 C16        -4.6746    3.2122   51.6760 C.2     1  <0>        -0.1200
     17 C17        -5.1775    2.0478   51.2069 C.2     1  <0>        -0.1900
     18 C18        -6.6267    1.6223   51.3500 C.3     1  <0>        -0.0500
     19 C19        -7.2882    2.4834   52.4291 C.3     1  <0>        -0.1200
     20 C20        -6.9967    3.9584   52.1378 C.3     1  <0>        -0.1200
     21 C21        -5.5192    4.2435   52.4134 C.3     1  <0>        -0.0600
     22 S22        -3.9699    1.1262   50.4270 S.3     1  <0>         0.2000
     23 C23         0.3545    2.1783   48.4698 C.3     1  <0>         0.0600
     24 C24         0.2004    1.2390   47.2512 C.3     1  <0>         0.0800
     25 H25         0.8261    1.5817   46.4271 H       1  <0>         0.1000
     26 O26         0.5433   -0.1010   47.6103 O.3     1  <0>        -0.5400
     27 H27        -3.3516    1.0317   45.2522 H       1  <0>         0.1100
     28 H28        -3.3210    2.6951   45.8853 H       1  <0>         0.1100
     29 H29        -2.9671    2.3897   44.1677 H       1  <0>         0.1600
     30 H30        -0.6125    1.4367   43.6134 H       1  <0>         0.1200
     31 H31         0.1212    0.5465   44.9689 H       1  <0>         0.1300
     32 H32        -1.9287    3.3244   47.4736 H       1  <0>         0.1000
     33 H33        -2.9115    1.9954   48.1623 H       1  <0>         0.1200
     34 H34        -2.7754    4.2576   51.7368 H       1  <0>         0.1500
     35 H35        -7.1445    1.7634   50.4013 H       1  <0>         0.0900
     36 H36        -6.6723    0.5728   51.6411 H       1  <0>         0.0800
     37 H37        -8.3652    2.3158   52.4201 H       1  <0>         0.0700
     38 H38        -6.8844    2.2179   53.4060 H       1  <0>         0.0700
     39 H39        -7.2210    4.1745   51.0932 H       1  <0>         0.0700
     40 H40        -7.6143    4.5855   52.7807 H       1  <0>         0.0700
     41 H41        -5.3275    4.1754   53.4842 H       1  <0>         0.0800
     42 H42        -5.2673    5.2426   52.0579 H       1  <0>         0.0800
     43 H43         0.6861    3.1661   48.1498 H       1  <0>         0.1000
     44 H44         1.0564    1.7551   49.1884 H       1  <0>         0.1000
     45 H45         0.5177   -0.7249   46.8718 H       1  <0>         0.4000
@<TRIPOS>BOND
     1     1     2    1
     2     1    27    1
     3     1    28    1
     4     1    29    1
     5     2     3    1
     6     2     4    1
     7     2     8    1
     8     4     5    1
     9     4    30    1
    10     4    31    1
    11     5     6   ar
    12     5     7   ar
    13     8     9    1
    14     8    24    1
    15     8    10    1
    16    10    11    1
    17    10    32    1
    18    10    33    1
    19    11    12   am
    20    11    23    1
    21    12    13    2
    22    12    14    1
    23    14    22    1
    24    14    15    2
    25    15    16    1
    26    15    34    1
    27    16    21    1
    28    16    17    2
    29    17    18    1
    30    17    22    1
    31    18    19    1
    32    18    35    1
    33    18    36    1
    34    19    20    1
    35    19    37    1
    36    19    38    1
    37    20    21    1
    38    20    39    1
    39    20    40    1
    40    21    41    1
    41    21    42    1
    42    23    24    1
    43    23    43    1
    44    23    44    1
    45    24    25    1
    46    24    26    1
    47    26    45    1
@<TRIPOS>SUBSTRUCTURE
     1 <0>         1 TEMP              0 ****  ****    0 ROOT


##########                                Name:    ZINC000464867530
##########                DOCK_Rotatable_Bonds:                   8
##########                         Heavy_Atoms:                  30
##########                    Molecular_Weight:              422.49
##########                DOCK_Rotatable_Bonds:                   8
##########                       Formal_Charge:         -0.00999994
##########                     HBond_Acceptors:                   7
##########                        HBond_Donors:                   0
##########                         Heavy_Atoms:                  30
##########                          Grid_Score:          -31.656609
##########                     Grid_vdw_energy:          -31.131979
##########                      Grid_es_energy:           -0.524629
##########           Internal_energy_repulsive:           40.892048

@<TRIPOS>MOLECULE
ZINC000464867530
 59 62 1 0 0
SMALL
USER_CHARGES


@<TRIPOS>ATOM
      1 C1         -7.8335    4.5825   53.4034 C.3     1  ZINC000464867530   -0.1500
      2 C2         -8.6822    3.3748   53.8060 C.3     1  ZINC000464867530   -0.1400
      3 C3         -7.7739    2.1627   54.0224 C.3     1  ZINC000464867530    0.0900
      4 N4         -8.4765    0.9458   53.6075 N.am    1  ZINC000464867530   -0.6100
      5 C5         -7.9219    0.1069   52.5422 C.3     1  ZINC000464867530    0.0700
      6 C6         -7.3436    0.9975   51.4406 C.3     1  ZINC000464867530    0.4300
      7 F7         -6.0510    1.3981   51.7953 F       1  ZINC000464867530   -0.1700
      8 F8         -7.2969    0.2821   50.2392 F       1  ZINC000464867530   -0.1800
      9 F9         -8.1542    2.1263   51.2800 F       1  ZINC000464867530   -0.1800
     10 C10        -9.6329    0.5982   54.2061 C.2     1  ZINC000464867530    0.5300
     11 O11       -10.0919    1.2928   55.0881 O.2     1  ZINC000464867530   -0.5100
     12 C12       -10.3557   -0.6534   53.7795 C.3     1  ZINC000464867530   -0.1200
     13 H13        -9.6285   -1.4196   53.5104 H       1  ZINC000464867530    0.1000
     14 C14       -11.2427   -0.3444   52.5713 C.3     1  ZINC000464867530   -0.1200
     15 C15       -11.9520   -1.6221   52.1170 C.3     1  ZINC000464867530   -0.1300
     16 C16       -12.8428   -2.1380   53.2515 C.3     1  ZINC000464867530    0.1000
     17 N17       -12.0231   -2.2999   54.4600 N.am    1  ZINC000464867530   -0.6100
     18 C18       -12.0004   -3.4737   55.1222 C.2     1  ZINC000464867530    0.5500
     19 O19       -12.6596   -4.4091   54.7208 O.2     1  ZINC000464867530   -0.5300
     20 C20       -11.1558   -3.6236   56.3612 C.3     1  ZINC000464867530   -0.1700
     21 H21       -10.1324   -3.2572   56.2801 H       1  ZINC000464867530    0.1300
     22 C22       -11.3987   -4.8552   57.2381 C.3     1  ZINC000464867530   -0.1300
     23 C23       -11.8513   -3.4771   57.7094 C.3     1  ZINC000464867530   -0.0600
     24 C24       -13.3435   -3.1163   57.7994 C.3     1  ZINC000464867530   -0.0900
     25 C25       -13.3087   -1.7668   58.5504 C.3     1  ZINC000464867530   -0.0800
     26 C26       -12.0279   -1.7937   59.3576 C.ar    1  ZINC000464867530   -0.0900
     27 C27       -11.6289   -1.0178   60.4322 C.ar    1  ZINC000464867530   -0.1100
     28 C28       -10.3952   -1.2229   61.0191 C.ar    1  ZINC000464867530   -0.1100
     29 C29        -9.5553   -2.2065   60.5321 C.ar    1  ZINC000464867530   -0.1200
     30 C30        -9.9511   -2.9824   59.4600 C.ar    1  ZINC000464867530   -0.1000
     31 C31       -11.1871   -2.7794   58.8699 C.ar    1  ZINC000464867530   -0.0700
     32 C32       -11.2277   -1.1587   54.9331 C.3     1  ZINC000464867530    0.1300
     33 H33        -7.1163    4.8024   54.1942 H       1  ZINC000464867530    0.0600
     34 H34        -7.2992    4.3595   52.4800 H       1  ZINC000464867530    0.0600
     35 H35        -8.4806    5.4461   53.2493 H       1  ZINC000464867530    0.0600
     36 H36        -9.2166    3.5978   54.7294 H       1  ZINC000464867530    0.0700
     37 H37        -9.3994    3.1549   53.0152 H       1  ZINC000464867530    0.0700
     38 H38        -6.8665    2.2783   53.4297 H       1  ZINC000464867530    0.0900
     39 H39        -7.5117    2.0889   55.0778 H       1  ZINC000464867530    0.0900
     40 H40        -7.1328   -0.5245   52.9506 H       1  ZINC000464867530    0.1300
     41 H41        -8.7103   -0.5203   52.1260 H       1  ZINC000464867530    0.1200
     42 H42       -11.9852    0.4043   52.8478 H       1  ZINC000464867530    0.0800
     43 H43       -10.6272    0.0384   51.7572 H       1  ZINC000464867530    0.0800
     44 H44       -12.5655   -1.4063   51.2422 H       1  ZINC000464867530    0.0900
     45 H45       -11.2103   -2.3796   51.8638 H       1  ZINC000464867530    0.0700
     46 H46       -13.6406   -1.4207   53.4446 H       1  ZINC000464867530    0.0700
     47 H47       -13.2730   -3.0991   52.9703 H       1  ZINC000464867530    0.0900
     48 H48       -12.1693   -5.5568   56.9186 H       1  ZINC000464867530    0.1100
     49 H49       -10.5352   -5.2983   57.7342 H       1  ZINC000464867530    0.1100
     50 H50       -13.7743   -2.9962   56.8054 H       1  ZINC000464867530    0.0700
     51 H51       -13.8900   -3.8654   58.3725 H       1  ZINC000464867530    0.0800
     52 H52       -13.2911   -0.9396   57.8409 H       1  ZINC000464867530    0.0800
     53 H53       -14.1706   -1.6801   59.2120 H       1  ZINC000464867530    0.0800
     54 H54       -12.2845   -0.2487   60.8132 H       1  ZINC000464867530    0.1200
     55 H55       -10.0874   -0.6153   61.8573 H       1  ZINC000464867530    0.1300
     56 H56        -8.5902   -2.3682   60.9891 H       1  ZINC000464867530    0.1300
     57 H57        -9.2935   -3.7504   59.0802 H       1  ZINC000464867530    0.1200
     58 H58       -10.5929   -1.4739   55.7612 H       1  ZINC000464867530    0.1000
     59 H59       -11.8934   -0.3612   55.2635 H       1  ZINC000464867530    0.0800
@<TRIPOS>BOND
     1     1     2    1
     2     1    33    1
     3     1    34    1
     4     1    35    1
     5     2     3    1
     6     2    36    1
     7     2    37    1
     8     3     4    1
     9     3    38    1
    10     3    39    1
    11     4     5    1
    12     4    10   am
    13     5     6    1
    14     5    40    1
    15     5    41    1
    16     6     7    1
    17     6     8    1
    18     6     9    1
    19    10    11    2
    20    10    12    1
    21    12    13    1
    22    12    32    1
    23    12    14    1
    24    14    15    1
    25    14    42    1
    26    14    43    1
    27    15    16    1
    28    15    44    1
    29    15    45    1
    30    16    17    1
    31    16    46    1
    32    16    47    1
    33    17    18   am
    34    17    32    1
    35    18    19    2
    36    18    20    1
    37    20    21    1
    38    20    23    1
    39    20    22    1
    40    22    23    1
    41    22    48    1
    42    22    49    1
    43    23    31    1
    44    23    24    1
    45    24    25    1
    46    24    50    1
    47    24    51    1
    48    25    26    1
    49    25    52    1
    50    25    53    1
    51    26    31   ar
    52    26    27   ar
    53    27    28   ar
    54    27    54    1
    55    28    29   ar
    56    28    55    1
    57    29    30   ar
    58    29    56    1
    59    30    31   ar
    60    30    57    1
    61    32    58    1
    62    32    59    1
@<TRIPOS>SUBSTRUCTURE
     1 ZINC000464867530        1 TEMP              0 ****  ****    0 ROOT


##########                                Name:    ZINC000326056918
##########                DOCK_Rotatable_Bonds:                   6
##########                         Heavy_Atoms:                  24
##########                    Molecular_Weight:             408.326
##########                DOCK_Rotatable_Bonds:                   6
##########                       Formal_Charge:         -0.00999978
##########                     HBond_Acceptors:                   9
##########                        HBond_Donors:                   0
##########                         Heavy_Atoms:                  24
##########                          Grid_Score:          -31.638287
##########                     Grid_vdw_energy:          -31.722534
##########                      Grid_es_energy:            0.084248
##########           Internal_energy_repulsive:           25.414700

@<TRIPOS>MOLECULE
ZINC000326056918
 39 40 1 0 0
SMALL
USER_CHARGES


@<TRIPOS>ATOM
      1 C1         -8.7163    1.3815   55.5772 C.3     1  ZINC000326056918    0.0400
      2 O2         -9.2673    0.0673   55.2991 O.3     1  ZINC000326056918   -0.3500
      3 C3        -10.0318   -0.0549   54.1943 C.2     1  ZINC000326056918    0.5000
      4 O4        -10.2425    0.9142   53.4903 O.2     1  ZINC000326056918   -0.4300
      5 C5        -10.6077   -1.3541   53.8428 C.2     1  ZINC000326056918   -0.1600
      6 C6        -11.5778   -2.0093   54.5496 C.2     1  ZINC000326056918   -0.6200
      7 S7        -12.2981   -1.3720   56.0261 S.o2    1  ZINC000326056918    2.6900
      8 O8        -11.7950   -0.0521   56.1806 O.2     1  ZINC000326056918   -0.9100
      9 O9        -13.6854   -1.6719   55.9575 O.2     1  ZINC000326056918   -0.9400
     10 N10       -11.6906   -2.2548   57.2886 N.am    1  ZINC000326056918   -0.9900
     11 C11       -12.5964   -3.0123   58.1556 C.3     1  ZINC000326056918    0.0900
     12 C12       -10.2472   -2.2782   57.5385 C.3     1  ZINC000326056918    0.1500
     13 C13        -9.9677   -1.7421   58.9189 C.ar    1  ZINC000326056918   -0.0900
     14 C14       -10.1642   -0.4018   59.1923 C.ar    1  ZINC000326056918   -0.0800
     15 C15        -9.9076    0.0909   60.4582 C.ar    1  ZINC000326056918   -0.1100
     16 C16        -9.4543   -0.7577   61.4522 C.ar    1  ZINC000326056918   -0.0200
     17 Cl17       -9.1326   -0.1390   63.0419 Cl      1  ZINC000326056918   -0.0600
     18 C18        -9.2579   -2.0998   61.1792 C.ar    1  ZINC000326056918   -0.1100
     19 C19        -9.5197   -2.5930   59.9139 C.ar    1  ZINC000326056918   -0.0300
     20 Cl20       -9.2741   -4.2770   59.5705 Cl      1  ZINC000326056918   -0.0100
     21 C21       -11.9354   -3.2139   53.9934 C.2     1  ZINC000326056918   -0.0400
     22 C22       -12.9859   -4.1058   54.6032 C.3     1  ZINC000326056918   -0.1100
     23 C23       -11.2829   -3.5369   52.8702 C.2     1  ZINC000326056918   -0.2600
     24 S24       -10.1685   -2.3188   52.4398 S.3     1  ZINC000326056918    0.3100
     25 H25        -8.1234    1.3410   56.4910 H       1  ZINC000326056918    0.1100
     26 H26        -8.0827    1.6931   54.7468 H       1  ZINC000326056918    0.0700
     27 H27        -9.5289    2.0972   55.7027 H       1  ZINC000326056918    0.0700
     28 H28       -12.7990   -3.9852   57.7078 H       1  ZINC000326056918    0.0600
     29 H29       -12.1330   -3.1513   59.1323 H       1  ZINC000326056918    0.0700
     30 H30       -13.5314   -2.4641   58.2717 H       1  ZINC000326056918    0.0900
     31 H31        -9.8825   -3.3027   57.4659 H       1  ZINC000326056918    0.1100
     32 H32        -9.7403   -1.6588   56.7986 H       1  ZINC000326056918    0.0900
     33 H33       -10.5180    0.2612   58.4165 H       1  ZINC000326056918    0.1400
     34 H34       -10.0606    1.1386   60.6711 H       1  ZINC000326056918    0.1400
     35 H35        -8.9040   -2.7627   61.9550 H       1  ZINC000326056918    0.1500
     36 H36       -13.9741   -3.7734   54.2851 H       1  ZINC000326056918    0.0900
     37 H37       -12.8252   -5.1330   54.2755 H       1  ZINC000326056918    0.0700
     38 H38       -12.9183   -4.0564   55.6900 H       1  ZINC000326056918    0.0900
     39 H39       -11.4433   -4.4457   52.3091 H       1  ZINC000326056918    0.1800
@<TRIPOS>BOND
     1     1     2    1
     2     1    25    1
     3     1    26    1
     4     1    27    1
     5     2     3    1
     6     3     4    2
     7     3     5    1
     8     5    24    1
     9     5     6    2
    10     6     7    1
    11     6    21    1
    12     7     8    2
    13     7     9    2
    14     7    10   am
    15    10    11    1
    16    10    12    1
    17    11    28    1
    18    11    29    1
    19    11    30    1
    20    12    13    1
    21    12    31    1
    22    12    32    1
    23    13    19   ar
    24    13    14   ar
    25    14    15   ar
    26    14    33    1
    27    15    16   ar
    28    15    34    1
    29    16    17    1
    30    16    18   ar
    31    18    19   ar
    32    18    35    1
    33    19    20    1
    34    21    22    1
    35    21    23    2
    36    22    36    1
    37    22    37    1
    38    22    38    1
    39    23    24    1
    40    23    39    1
@<TRIPOS>SUBSTRUCTURE
     1 ZINC000326056918        1 TEMP              0 ****  ****    0 ROOT


##########                                Name:    ZINC000337709254
##########                DOCK_Rotatable_Bonds:                   7
##########                         Heavy_Atoms:                  22
##########                    Molecular_Weight:              329.42
##########                DOCK_Rotatable_Bonds:                   7
##########                       Formal_Charge:           0.0300004
##########                     HBond_Acceptors:                   8
##########                        HBond_Donors:                   2
##########                         Heavy_Atoms:                  22
##########                          Grid_Score:          -31.624224
##########                     Grid_vdw_energy:          -31.420954
##########                      Grid_es_energy:           -0.203269
##########           Internal_energy_repulsive:           10.737066

@<TRIPOS>MOLECULE
ZINC000337709254
 45 46 1 0 0
SMALL
USER_CHARGES


@<TRIPOS>ATOM
      1 C1        -10.3023   -1.1982   52.7973 C.3     1  ZINC000337709254   -0.6700
      2 S2        -11.7700   -2.1519   52.3213 S.o2    1  ZINC000337709254    2.6100
      3 O3        -12.3386   -1.6297   51.1282 O.2     1  ZINC000337709254   -0.9500
      4 O4        -11.5294   -3.5445   52.4698 O.2     1  ZINC000337709254   -0.9500
      5 N5        -12.8872   -1.8033   53.4928 N.am    1  ZINC000337709254   -1.1200
      6 C6        -12.6022   -2.1207   54.8943 C.3     1  ZINC000337709254    0.1200
      7 C7        -13.5964   -3.1721   55.3915 C.3     1  ZINC000337709254   -0.1100
      8 H8        -14.5928   -2.9695   54.9985 H       1  ZINC000337709254    0.1100
      9 C9        -13.1318   -4.5926   54.9850 C.3     1  ZINC000337709254   -0.1200
     10 C10       -13.8405   -5.4949   56.0255 C.3     1  ZINC000337709254   -0.1200
     11 C11       -13.7733   -4.6849   57.3367 C.3     1  ZINC000337709254   -0.1400
     12 C12       -13.6208   -3.2056   56.9336 C.3     1  ZINC000337709254    0.1500
     13 H13       -14.4646   -2.6271   57.3099 H       1  ZINC000337709254    0.1000
     14 N14       -12.3666   -2.6672   57.4659 N.am    1  ZINC000337709254   -0.7200
     15 C15       -12.2645   -2.3660   58.7755 C.2     1  ZINC000337709254    0.5300
     16 O16       -13.2115   -2.5393   59.5133 O.2     1  ZINC000337709254   -0.5100
     17 C17       -10.9738   -1.8139   59.3234 C.3     1  ZINC000337709254    0.0200
     18 C18       -10.3381   -0.9529   58.3129 C.1     1  ZINC000337709254    0.2000
     19 N19        -9.8476   -0.2883   57.5330 N.1     1  ZINC000337709254   -0.3900
     20 C20       -11.2612   -0.9976   60.5872 C.3     1  ZINC000337709254   -0.1500
     21 C21        -9.9379   -0.5069   61.1804 C.3     1  ZINC000337709254    0.0600
     22 O22        -9.0971   -1.6285   61.4585 O.3     1  ZINC000337709254   -0.3700
     23 C23        -8.7561   -2.4021   60.3064 C.3     1  ZINC000337709254    0.0600
     24 C24       -10.0320   -2.9688   59.6781 C.3     1  ZINC000337709254   -0.1300
     25 H25       -10.5502   -0.1370   52.8202 H       1  ZINC000337709254    0.1300
     26 H26        -9.9680   -1.5146   53.7854 H       1  ZINC000337709254    0.1300
     27 H27        -9.5065   -1.3697   52.0724 H       1  ZINC000337709254    0.1300
     28 H28       -13.7304   -1.3891   53.2511 H       1  ZINC000337709254    0.4200
     29 H29       -11.5880   -2.5108   54.9797 H       1  ZINC000337709254    0.0600
     30 H30       -12.6962   -1.2178   55.4977 H       1  ZINC000337709254    0.0900
     31 H31       -13.4639   -4.8333   53.9751 H       1  ZINC000337709254    0.0800
     32 H32       -12.0488   -4.6836   55.0687 H       1  ZINC000337709254    0.0700
     33 H33       -14.8771   -5.6684   55.7369 H       1  ZINC000337709254    0.0700
     34 H34       -13.3103   -6.4411   56.1340 H       1  ZINC000337709254    0.0700
     35 H35       -14.6918   -4.8216   57.9075 H       1  ZINC000337709254    0.0800
     36 H36       -12.9148   -5.0026   57.9283 H       1  ZINC000337709254    0.0700
     37 H37       -11.6096   -2.5274   56.8756 H       1  ZINC000337709254    0.4000
     38 H38       -11.8862   -0.1414   60.3335 H       1  ZINC000337709254    0.0900
     39 H39       -11.7770   -1.6232   61.3156 H       1  ZINC000337709254    0.1100
     40 H40        -9.4416    0.1513   60.4672 H       1  ZINC000337709254    0.0500
     41 H41       -10.1333    0.0386   62.1036 H       1  ZINC000337709254    0.1100
     42 H42        -8.2445   -1.7686   59.5817 H       1  ZINC000337709254    0.0500
     43 H43        -8.1004   -3.2218   60.5999 H       1  ZINC000337709254    0.1100
     44 H44       -10.5231   -3.6343   60.3880 H       1  ZINC000337709254    0.1100
     45 H45        -9.7781   -3.5224   58.7741 H       1  ZINC000337709254    0.0900
@<TRIPOS>BOND
     1     1     2    1
     2     1    25    1
     3     1    26    1
     4     1    27    1
     5     2     3    2
     6     2     4    2
     7     2     5   am
     8     5     6    1
     9     5    28    1
    10     6     7    1
    11     6    29    1
    12     6    30    1
    13     7     8    1
    14     7    12    1
    15     7     9    1
    16     9    10    1
    17     9    31    1
    18     9    32    1
    19    10    11    1
    20    10    33    1
    21    10    34    1
    22    11    12    1
    23    11    35    1
    24    11    36    1
    25    12    13    1
    26    12    14    1
    27    14    15   am
    28    14    37    1
    29    15    16    2
    30    15    17    1
    31    17    24    1
    32    17    18    1
    33    17    20    1
    34    18    19    3
    35    20    21    1
    36    20    38    1
    37    20    39    1
    38    21    22    1
    39    21    40    1
    40    21    41    1
    41    22    23    1
    42    23    24    1
    43    23    42    1
    44    23    43    1
    45    24    44    1
    46    24    45    1
@<TRIPOS>SUBSTRUCTURE
     1 ZINC000337709254        1 TEMP              0 ****  ****    0 ROOT


##########                                Name:    ZINC000549659617
##########                DOCK_Rotatable_Bonds:                   9
##########                         Heavy_Atoms:                  28
##########                    Molecular_Weight:              418.48
##########                DOCK_Rotatable_Bonds:                   9
##########                       Formal_Charge:          0.00999956
##########                     HBond_Acceptors:                   9
##########                        HBond_Donors:                   1
##########                         Heavy_Atoms:                  28
##########                          Grid_Score:          -31.602200
##########                     Grid_vdw_energy:          -31.719202
##########                      Grid_es_energy:            0.117003
##########           Internal_energy_repulsive:           23.823301

@<TRIPOS>MOLECULE
ZINC000549659617
 53 55 1 0 0
SMALL
USER_CHARGES


@<TRIPOS>ATOM
      1 C1        -15.3483   -3.6971   58.2832 C.3     1  ZINC000549659617   -0.1500
      2 C2        -14.2268   -3.5503   57.2527 C.3     1  ZINC000549659617   -0.1500
      3 C3        -14.0838   -2.0782   56.8610 C.3     1  ZINC000549659617    0.1100
      4 N4        -12.7140   -1.8245   56.4074 N.am    1  ZINC000549659617   -0.6100
      5 C5        -11.7590   -1.4949   57.2994 C.2     1  ZINC000549659617    0.7100
      6 O6        -10.6218   -1.2858   56.9233 O.2     1  ZINC000549659617   -0.5700
      7 N7        -12.0645   -1.3970   58.6085 N.am    1  ZINC000549659617   -0.7400
      8 C8        -11.0259   -1.0404   59.5783 C.3     1  ZINC000549659617    0.2300
      9 H9        -10.3634   -0.2924   59.1427 H       1  ZINC000549659617    0.1100
     10 C10       -11.6695   -0.4791   60.8200 C.ar    1  ZINC000549659617   -0.0900
     11 C11       -12.7154   -1.1536   61.4213 C.ar    1  ZINC000549659617   -0.0800
     12 C12       -13.3060   -0.6388   62.5606 C.ar    1  ZINC000549659617   -0.1100
     13 C13       -12.8500    0.5501   63.0983 C.ar    1  ZINC000549659617   -0.0700
     14 C14       -11.8032    1.2243   62.4973 C.ar    1  ZINC000549659617   -0.1800
     15 C15       -11.3065    2.5207   63.0833 C.3     1  ZINC000549659617    0.5100
     16 F16       -10.2525    2.2601   63.9656 F       1  ZINC000549659617   -0.1800
     17 F17       -10.8579    3.3559   62.0545 F       1  ZINC000549659617   -0.1700
     18 F18       -12.3480    3.1496   63.7739 F       1  ZINC000549659617   -0.1700
     19 C19       -11.2101    0.7074   61.3609 C.ar    1  ZINC000549659617   -0.0500
     20 C20       -10.2178   -2.2877   59.9420 C.3     1  ZINC000549659617   -0.1700
     21 C21        -8.7489   -2.3267   59.5159 C.3     1  ZINC000549659617   -0.1700
     22 C22        -9.1131   -2.1332   60.9893 C.3     1  ZINC000549659617   -0.1800
     23 C23       -12.3824   -1.9292   54.9843 C.3     1  ZINC000549659617    0.1700
     24 H24       -11.9208   -1.0039   54.6398 H       1  ZINC000549659617    0.1100
     25 C25       -13.6534   -2.2201   54.1671 C.3     1  ZINC000549659617   -0.1400
     26 C26       -13.2394   -2.6592   52.7485 C.3     1  ZINC000549659617   -0.5900
     27 S27       -11.5888   -3.4216   52.9490 S.o2    1  ZINC000549659617    2.3900
     28 O28       -11.6835   -4.8192   52.7101 O.2     1  ZINC000549659617   -0.9300
     29 O29       -10.6244   -2.6478   52.2486 O.2     1  ZINC000549659617   -0.9400
     30 C30       -11.4203   -3.1221   54.7497 C.3     1  ZINC000549659617   -0.6100
     31 H31       -15.4502   -4.7459   58.5622 H       1  ZINC000549659617    0.0600
     32 H32       -15.1082   -3.1074   59.1678 H       1  ZINC000549659617    0.0600
     33 H33       -16.2852   -3.3428   57.8535 H       1  ZINC000549659617    0.0600
     34 H34       -13.2899   -3.9047   57.6824 H       1  ZINC000549659617    0.0700
     35 H35       -14.4669   -4.1400   56.3680 H       1  ZINC000549659617    0.0700
     36 H36       -14.7818   -1.8468   56.0564 H       1  ZINC000549659617    0.0800
     37 H37       -14.3029   -1.4496   57.7241 H       1  ZINC000549659617    0.0900
     38 H38       -12.9719   -1.5626   58.9085 H       1  ZINC000549659617    0.4000
     39 H39       -13.0717   -2.0825   61.0012 H       1  ZINC000549659617    0.1300
     40 H40       -14.1237   -1.1653   63.0300 H       1  ZINC000549659617    0.1400
     41 H41       -13.3118    0.9526   63.9877 H       1  ZINC000549659617    0.1400
     42 H42       -10.3924    1.2340   60.8915 H       1  ZINC000549659617    0.1400
     43 H43       -10.7711   -3.2266   59.9288 H       1  ZINC000549659617    0.1100
     44 H44        -8.3356   -3.2917   59.2222 H       1  ZINC000549659617    0.0900
     45 H45        -8.3581   -1.4639   58.9765 H       1  ZINC000549659617    0.0900
     46 H46        -8.9621   -1.1430   61.4191 H       1  ZINC000549659617    0.1200
     47 H47        -8.9395   -2.9707   61.6649 H       1  ZINC000549659617    0.0900
     48 H48       -14.2226   -3.0169   54.6458 H       1  ZINC000549659617    0.1100
     49 H49       -14.2652   -1.3199   54.1081 H       1  ZINC000549659617    0.0900
     50 H50       -13.9480   -3.3885   52.3560 H       1  ZINC000549659617    0.1400
     51 H51       -13.1792   -1.7948   52.0872 H       1  ZINC000549659617    0.1400
     52 H52       -10.3956   -2.8496   55.0024 H       1  ZINC000549659617    0.1400
     53 H53       -11.7411   -3.9948   55.3186 H       1  ZINC000549659617    0.1600
@<TRIPOS>BOND
     1     1     2    1
     2     1    31    1
     3     1    32    1
     4     1    33    1
     5     2     3    1
     6     2    34    1
     7     2    35    1
     8     3     4    1
     9     3    36    1
    10     3    37    1
    11     4     5   am
    12     4    23    1
    13     5     6    2
    14     5     7   am
    15     7     8    1
    16     7    38    1
    17     8     9    1
    18     8    10    1
    19     8    20    1
    20    10    19   ar
    21    10    11   ar
    22    11    12   ar
    23    11    39    1
    24    12    13   ar
    25    12    40    1
    26    13    14   ar
    27    13    41    1
    28    14    15    1
    29    14    19   ar
    30    15    16    1
    31    15    17    1
    32    15    18    1
    33    19    42    1
    34    20    22    1
    35    20    21    1
    36    20    43    1
    37    21    22    1
    38    21    44    1
    39    21    45    1
    40    22    46    1
    41    22    47    1
    42    23    24    1
    43    23    30    1
    44    23    25    1
    45    25    26    1
    46    25    48    1
    47    25    49    1
    48    26    27    1
    49    26    50    1
    50    26    51    1
    51    27    28    2
    52    27    29    2
    53    27    30    1
    54    30    52    1
    55    30    53    1
@<TRIPOS>SUBSTRUCTURE
     1 ZINC000549659617        1 TEMP              0 ****  ****    0 ROOT


##########                                Name:    ZINC000842947763
##########                DOCK_Rotatable_Bonds:                   7
##########                         Heavy_Atoms:                  24
##########                    Molecular_Weight:             365.373
##########                DOCK_Rotatable_Bonds:                   7
##########                       Formal_Charge:          0.00999997
##########                     HBond_Acceptors:                   9
##########                        HBond_Donors:                   0
##########                         Heavy_Atoms:                  24
##########                          Grid_Score:          -31.594982
##########                     Grid_vdw_energy:          -31.461573
##########                      Grid_es_energy:           -0.133409
##########           Internal_energy_repulsive:           33.238819

@<TRIPOS>MOLECULE
ZINC000842947763
 42 43 1 0 0
SMALL
USER_CHARGES


@<TRIPOS>ATOM
      1 C1        -10.0639    0.8555   61.8408 C.3     1  ZINC000842947763   -0.1600
      2 C2        -10.4242   -0.6226   62.0032 C.3     1  ZINC000842947763   -0.1000
      3 H3        -10.7294   -0.8113   63.0324 H       1  ZINC000842947763    0.1000
      4 C4         -9.2057   -1.4845   61.6665 C.3     1  ZINC000842947763    0.0800
      5 O5         -8.9971   -1.4875   60.2295 O.3     1  ZINC000842947763   -0.3500
      6 C6         -9.0447   -2.6817   59.6069 C.2     1  ZINC000842947763    0.5200
      7 O7         -8.3723   -3.6075   60.0162 O.2     1  ZINC000842947763   -0.5100
      8 C8         -9.9120   -2.8648   58.4294 C.ar    1  ZINC000842947763   -0.1600
      9 C9        -10.5885   -4.0730   58.2339 C.ar    1  ZINC000842947763   -0.0200
     10 C10       -11.3956   -4.2371   57.1345 C.ar    1  ZINC000842947763   -0.1700
     11 C11       -11.5456   -3.2001   56.2056 C.ar    1  ZINC000842947763    0.2000
     12 C12       -10.8690   -2.0030   56.4088 C.ar    1  ZINC000842947763   -0.1500
     13 C13       -10.0687   -1.8298   57.5027 C.ar    1  ZINC000842947763   -0.0100
     14 C14       -11.2042   -1.0648   55.2703 C.3     1  ZINC000842947763   -0.0800
     15 C15       -12.1631   -1.8706   54.3788 C.3     1  ZINC000842947763    0.1100
     16 N16       -12.3065   -3.1684   55.0432 N.am    1  ZINC000842947763   -0.9400
     17 S17       -13.2407   -4.4181   54.4886 S.o2    1  ZINC000842947763    2.6100
     18 C18       -14.9216   -3.7381   54.4361 C.3     1  ZINC000842947763   -0.6700
     19 O19       -12.7590   -4.6591   53.1736 O.2     1  ZINC000842947763   -0.9300
     20 O20       -13.1357   -5.4101   55.5005 O.2     1  ZINC000842947763   -0.9400
     21 C21       -11.5744   -0.9741   61.0575 C.3     1  ZINC000842947763   -0.1600
     22 C22       -12.8570   -0.2932   61.5394 C.3     1  ZINC000842947763    0.4600
     23 F23       -12.9354    0.9929   60.9945 F       1  ZINC000842947763   -0.1800
     24 F24       -13.9652   -1.0420   61.1288 F       1  ZINC000842947763   -0.1800
     25 F25       -12.8434   -0.2079   62.9357 F       1  ZINC000842947763   -0.1800
     26 H26       -10.8823    1.4719   62.2131 H       1  ZINC000842947763    0.0700
     27 H27        -9.1583    1.0731   62.4071 H       1  ZINC000842947763    0.0700
     28 H28        -9.8946    1.0745   60.7865 H       1  ZINC000842947763    0.0600
     29 H29        -8.3241   -1.0763   62.1607 H       1  ZINC000842947763    0.0800
     30 H30        -9.3758   -2.5045   62.0111 H       1  ZINC000842947763    0.0800
     31 H31       -10.4762   -4.8766   58.9466 H       1  ZINC000842947763    0.1500
     32 H32       -11.9171   -5.1711   56.9857 H       1  ZINC000842947763    0.1500
     33 H33        -9.5495   -0.8939   57.6475 H       1  ZINC000842947763    0.1400
     34 H34       -11.6975   -0.1692   55.6479 H       1  ZINC000842947763    0.1000
     35 H35       -10.3028   -0.7996   54.7176 H       1  ZINC000842947763    0.1000
     36 H36       -13.1293   -1.3703   54.3138 H       1  ZINC000842947763    0.1000
     37 H37       -11.7359   -2.0003   53.3844 H       1  ZINC000842947763    0.0900
     38 H38       -14.9460   -2.8815   53.7623 H       1  ZINC000842947763    0.1300
     39 H39       -15.6116   -4.5020   54.0777 H       1  ZINC000842947763    0.1400
     40 H40       -15.2172   -3.4220   55.4365 H       1  ZINC000842947763    0.1300
     41 H41       -11.3360   -0.6291   60.0514 H       1  ZINC000842947763    0.1200
     42 H42       -11.7186   -2.0545   61.0466 H       1  ZINC000842947763    0.1100
@<TRIPOS>BOND
     1     1     2    1
     2     1    26    1
     3     1    27    1
     4     1    28    1
     5     2     3    1
     6     2     4    1
     7     2    21    1
     8     4     5    1
     9     4    29    1
    10     4    30    1
    11     5     6    1
    12     6     7    2
    13     6     8    1
    14     8    13   ar
    15     8     9   ar
    16     9    10   ar
    17     9    31    1
    18    10    11   ar
    19    10    32    1
    20    11    16    1
    21    11    12   ar
    22    12    13   ar
    23    12    14    1
    24    13    33    1
    25    14    15    1
    26    14    34    1
    27    14    35    1
    28    15    16    1
    29    15    36    1
    30    15    37    1
    31    16    17   am
    32    17    18    1
    33    17    19    2
    34    17    20    2
    35    18    38    1
    36    18    39    1
    37    18    40    1
    38    21    22    1
    39    21    41    1
    40    21    42    1
    41    22    23    1
    42    22    24    1
    43    22    25    1
@<TRIPOS>SUBSTRUCTURE
     1 ZINC000842947763        1 TEMP              0 ****  ****    0 ROOT


##########                                Name:    ZINC001082278299
##########                DOCK_Rotatable_Bonds:                   9
##########                         Heavy_Atoms:                  25
##########                    Molecular_Weight:              346.47
##########                DOCK_Rotatable_Bonds:                   9
##########                       Formal_Charge:           0.0200001
##########                     HBond_Acceptors:                   5
##########                        HBond_Donors:                   1
##########                         Heavy_Atoms:                  25
##########                          Grid_Score:          -31.584724
##########                     Grid_vdw_energy:          -30.624247
##########                      Grid_es_energy:           -0.960479
##########           Internal_energy_repulsive:           87.376633

@<TRIPOS>MOLECULE
ZINC001082278299
 55 57 1 0 0
SMALL
USER_CHARGES


@<TRIPOS>ATOM
      1 C1         -8.8721   -0.3202   63.9276 C.3     1  ZINC001082278299   -0.1300
      2 C2         -9.3483   -0.4369   62.5026 C.2     1  ZINC001082278299    0.0000
      3 C3         -8.9314   -1.4454   61.7425 C.2     1  ZINC001082278299   -0.2300
      4 C4         -9.3964   -1.5593   60.3516 C.2     1  ZINC001082278299    0.5400
      5 O5        -10.1454   -2.4629   60.0329 O.2     1  ZINC001082278299   -0.5300
      6 N6         -8.9924   -0.6623   59.4303 N.am    1  ZINC001082278299   -0.7400
      7 C7         -9.4570   -0.7748   58.0455 C.3     1  ZINC001082278299    0.1300
      8 C8         -8.9572    0.4267   57.2408 C.3     1  ZINC001082278299    0.1400
      9 H9         -7.8730    0.3743   57.1411 H       1  ZINC001082278299    0.0800
     10 C10        -9.3448    1.7230   57.9592 C.3     1  ZINC001082278299   -0.1300
     11 C11        -8.9664    2.9196   57.0834 C.3     1  ZINC001082278299   -0.1200
     12 C12        -9.7359    2.8508   55.7625 C.3     1  ZINC001082278299   -0.1400
     13 C13        -9.3527    1.5673   55.0191 C.3     1  ZINC001082278299    0.1100
     14 N14        -9.5754    0.4183   55.9079 N.am    1  ZINC001082278299   -0.6100
     15 C15       -10.3361   -0.6205   55.5098 C.2     1  ZINC001082278299    0.5100
     16 O16       -10.5122   -1.5630   56.2525 O.2     1  ZINC001082278299   -0.5100
     17 C17       -10.9679   -0.6111   54.1416 C.3     1  ZINC001082278299   -0.1100
     18 C18       -11.8805   -1.8022   54.0015 C.2     1  ZINC001082278299   -0.0900
     19 C19       -13.0575   -1.7558   54.5512 C.2     1  ZINC001082278299   -0.1800
     20 C20       -14.0372   -2.8924   54.4771 C.3     1  ZINC001082278299    0.0900
     21 O21       -13.6459   -3.8133   53.4569 O.3     1  ZINC001082278299   -0.3800
     22 C22       -12.2727   -4.2104   53.5570 C.3     1  ZINC001082278299    0.0600
     23 C23       -11.3970   -2.9965   53.2261 C.3     1  ZINC001082278299   -0.1100
     24 C24       -10.2972    0.5893   61.9389 C.3     1  ZINC001082278299   -0.1200
     25 C25       -11.4202    1.0890   62.8501 C.3     1  ZINC001082278299   -0.1900
     26 C26       -10.2374    2.0025   62.5222 C.3     1  ZINC001082278299   -0.1500
     27 H27        -7.9588    0.2741   63.9579 H       1  ZINC001082278299    0.0800
     28 H28        -9.6410    0.1644   64.5292 H       1  ZINC001082278299    0.0800
     29 H29        -8.6718   -1.3148   64.3263 H       1  ZINC001082278299    0.0700
     30 H30        -8.2514   -2.1808   62.1465 H       1  ZINC001082278299    0.1300
     31 H31        -8.3940    0.0576   59.6842 H       1  ZINC001082278299    0.3900
     32 H32        -9.0689   -1.6935   57.6055 H       1  ZINC001082278299    0.0900
     33 H33       -10.5466   -0.7958   58.0283 H       1  ZINC001082278299    0.0800
     34 H34       -10.4195    1.7307   58.1411 H       1  ZINC001082278299    0.0700
     35 H35        -8.8141    1.7852   58.9093 H       1  ZINC001082278299    0.0800
     36 H36        -9.2187    3.8441   57.6030 H       1  ZINC001082278299    0.0700
     37 H37        -7.8955    2.8975   56.8814 H       1  ZINC001082278299    0.0700
     38 H38       -10.8069    2.8480   55.9651 H       1  ZINC001082278299    0.0700
     39 H39        -9.4836    3.7157   55.1489 H       1  ZINC001082278299    0.0800
     40 H40        -9.9697    1.4639   54.1265 H       1  ZINC001082278299    0.0900
     41 H41        -8.3010    1.6092   54.7360 H       1  ZINC001082278299    0.0700
     42 H42       -11.5441    0.3052   54.0139 H       1  ZINC001082278299    0.1000
     43 H43       -10.1885   -0.6592   53.3812 H       1  ZINC001082278299    0.1000
     44 H44       -13.3435   -0.8614   55.0847 H       1  ZINC001082278299    0.1100
     45 H45       -14.0661   -3.4076   55.4373 H       1  ZINC001082278299    0.0600
     46 H46       -15.0285   -2.5007   54.2496 H       1  ZINC001082278299    0.1000
     47 H47       -12.0628   -4.5541   54.5699 H       1  ZINC001082278299    0.0600
     48 H48       -12.0698   -5.0124   52.8473 H       1  ZINC001082278299    0.1000
     49 H49       -11.4522   -2.7897   52.1573 H       1  ZINC001082278299    0.0800
     50 H50       -10.3639   -3.2083   53.5015 H       1  ZINC001082278299    0.0800
     51 H51       -10.5168    0.4926   60.8756 H       1  ZINC001082278299    0.1300
     52 H52       -12.3789    1.3210   62.3864 H       1  ZINC001082278299    0.1000
     53 H53       -11.4726    0.6754   63.8572 H       1  ZINC001082278299    0.1000
     54 H54        -9.5117    2.1899   63.3138 H       1  ZINC001082278299    0.0900
     55 H55       -10.4180    2.8355   61.8429 H       1  ZINC001082278299    0.1000
@<TRIPOS>BOND
     1     1     2    1
     2     1    27    1
     3     1    28    1
     4     1    29    1
     5     2     3    2
     6     2    24    1
     7     3     4    1
     8     3    30    1
     9     4     5    2
    10     4     6   am
    11     6     7    1
    12     6    31    1
    13     7     8    1
    14     7    32    1
    15     7    33    1
    16     8     9    1
    17     8    14    1
    18     8    10    1
    19    10    11    1
    20    10    34    1
    21    10    35    1
    22    11    12    1
    23    11    36    1
    24    11    37    1
    25    12    13    1
    26    12    38    1
    27    12    39    1
    28    13    14    1
    29    13    40    1
    30    13    41    1
    31    14    15   am
    32    15    16    2
    33    15    17    1
    34    17    18    1
    35    17    42    1
    36    17    43    1
    37    18    23    1
    38    18    19    2
    39    19    20    1
    40    19    44    1
    41    20    21    1
    42    20    45    1
    43    20    46    1
    44    21    22    1
    45    22    23    1
    46    22    47    1
    47    22    48    1
    48    23    49    1
    49    23    50    1
    50    24    26    1
    51    24    25    1
    52    24    51    1
    53    25    26    1
    54    25    52    1
    55    25    53    1
    56    26    54    1
    57    26    55    1
@<TRIPOS>SUBSTRUCTURE
     1 ZINC001082278299        1 TEMP              0 ****  ****    0 ROOT


##########                                Name:    ZINC000458730620
##########                DOCK_Rotatable_Bonds:                   9
##########                         Heavy_Atoms:                  25
##########                    Molecular_Weight:              375.44
##########                DOCK_Rotatable_Bonds:                   9
##########                       Formal_Charge:        -1.86265e-07
##########                     HBond_Acceptors:                   9
##########                        HBond_Donors:                   3
##########                         Heavy_Atoms:                  25
##########                          Grid_Score:          -31.545517
##########                     Grid_vdw_energy:          -29.191624
##########                      Grid_es_energy:           -2.353893
##########           Internal_energy_repulsive:           49.050877

@<TRIPOS>MOLECULE
ZINC000458730620
 48 49 1 0 0
SMALL
USER_CHARGES


@<TRIPOS>ATOM
      1 C1         -8.9067    0.1658   67.2230 C.3     1  ZINC000458730620   -0.1600
      2 C2         -8.0015    0.7640   66.1441 C.3     1  ZINC000458730620    0.2000
      3 C3         -6.5376    0.5021   66.5039 C.3     1  ZINC000458730620   -0.1600
      4 N4         -8.3055    0.1433   64.8524 N.am    1  ZINC000458730620   -0.7400
      5 C5         -9.5208    0.3100   64.2941 C.2     1  ZINC000458730620    0.7100
      6 O6        -10.3654    0.9743   64.8631 O.2     1  ZINC000458730620   -0.5800
      7 N7         -9.7999   -0.2596   63.1049 N.am    1  ZINC000458730620   -0.7500
      8 C8        -11.1203   -0.0770   62.4972 C.3     1  ZINC000458730620    0.1300
      9 C9        -11.1920   -0.8640   61.1870 C.3     1  ZINC000458730620    0.1000
     10 N10        -9.9389   -0.6955   60.4470 N.am    1  ZINC000458730620   -1.1100
     11 S11        -9.9531   -0.6624   58.7913 S.o2    1  ZINC000458730620    2.7000
     12 O12       -10.8933    0.3356   58.4182 O.2     1  ZINC000458730620   -0.9400
     13 O13        -8.5934   -0.6423   58.3788 O.2     1  ZINC000458730620   -0.9400
     14 C14       -10.6164   -2.2003   58.2445 C.ar    1  ZINC000458730620   -0.7300
     15 C15       -11.7540   -2.2221   57.4601 C.ar    1  ZINC000458730620    0.0400
     16 C16       -12.2751   -3.4279   57.0300 C.ar    1  ZINC000458730620   -0.1800
     17 C17       -11.6579   -4.6154   57.3846 C.ar    1  ZINC000458730620    0.1900
     18 F18       -12.1674   -5.7938   56.9636 F       1  ZINC000458730620   -0.1200
     19 C19       -10.5183   -4.5948   58.1703 C.ar    1  ZINC000458730620   -0.2100
     20 C20        -9.9943   -3.3867   58.5961 C.ar    1  ZINC000458730620    0.2200
     21 F21        -8.8823   -3.3651   59.3628 F       1  ZINC000458730620   -0.1100
     22 C22        -8.2428    2.2722   66.0547 C.3     1  ZINC000458730620   -0.1100
     23 C23        -9.4656    2.7489   66.8562 C.3     1  ZINC000458730620   -0.1400
     24 C24        -8.6237    3.9693   67.2645 C.3     1  ZINC000458730620   -0.1400
     25 C25        -7.3823    3.0927   67.0299 C.3     1  ZINC000458730620   -0.1400
     26 H26        -8.6388    0.5824   68.1939 H       1  ZINC000458730620    0.0600
     27 H27        -9.9462    0.4055   66.9991 H       1  ZINC000458730620    0.0500
     28 H28        -8.7799   -0.9165   67.2444 H       1  ZINC000458730620    0.0800
     29 H29        -6.3658   -0.5724   66.5677 H       1  ZINC000458730620    0.0800
     30 H30        -5.8928    0.9282   65.7353 H       1  ZINC000458730620    0.0500
     31 H31        -6.3115    0.9639   67.4651 H       1  ZINC000458730620    0.0600
     32 H32        -7.6321   -0.3875   64.3989 H       1  ZINC000458730620    0.3900
     33 H33        -9.1265   -0.7906   62.6515 H       1  ZINC000458730620    0.4000
     34 H34       -11.8882   -0.4390   63.1808 H       1  ZINC000458730620    0.0800
     35 H35       -11.2839    0.9815   62.2946 H       1  ZINC000458730620    0.0800
     36 H36       -11.3455   -1.9207   61.4058 H       1  ZINC000458730620    0.0900
     37 H37       -12.0219   -0.4932   60.5854 H       1  ZINC000458730620    0.0700
     38 H38        -9.1010   -0.6033   60.9267 H       1  ZINC000458730620    0.4300
     39 H39       -12.2363   -1.2963   57.1833 H       1  ZINC000458730620    0.1700
     40 H40       -13.1644   -3.4437   56.4173 H       1  ZINC000458730620    0.1600
     41 H41       -10.0362   -5.5207   58.4475 H       1  ZINC000458730620    0.1600
     42 H42        -8.2180    2.6448   65.0308 H       1  ZINC000458730620    0.1100
     43 H43       -10.3248    2.9997   66.2341 H       1  ZINC000458730620    0.0700
     44 H44        -9.7221    2.0964   67.6908 H       1  ZINC000458730620    0.0800
     45 H45        -8.7041    4.8068   66.5715 H       1  ZINC000458730620    0.0800
     46 H46        -8.7592    4.2650   68.3048 H       1  ZINC000458730620    0.0700
     47 H47        -7.0692    2.5341   67.9120 H       1  ZINC000458730620    0.0800
     48 H48        -6.5595    3.6208   66.5480 H       1  ZINC000458730620    0.0700
@<TRIPOS>BOND
     1     1     2    1
     2     1    26    1
     3     1    27    1
     4     1    28    1
     5     2     3    1
     6     2     4    1
     7     2    22    1
     8     3    29    1
     9     3    30    1
    10     3    31    1
    11     4     5   am
    12     4    32    1
    13     5     6    2
    14     5     7   am
    15     7     8    1
    16     7    33    1
    17     8     9    1
    18     8    34    1
    19     8    35    1
    20     9    10    1
    21     9    36    1
    22     9    37    1
    23    10    11   am
    24    10    38    1
    25    11    12    2
    26    11    13    2
    27    11    14    1
    28    14    20   ar
    29    14    15   ar
    30    15    16   ar
    31    15    39    1
    32    16    17   ar
    33    16    40    1
    34    17    18    1
    35    17    19   ar
    36    19    20   ar
    37    19    41    1
    38    20    21    1
    39    22    25    1
    40    22    23    1
    41    22    42    1
    42    23    24    1
    43    23    43    1
    44    23    44    1
    45    24    25    1
    46    24    45    1
    47    24    46    1
    48    25    47    1
    49    25    48    1
@<TRIPOS>SUBSTRUCTURE
     1 ZINC000458730620        1 TEMP              0 ****  ****    0 ROOT


##########                                Name:    ZINC001345266033
##########                DOCK_Rotatable_Bonds:                   4
##########                         Heavy_Atoms:                  29
##########                    Molecular_Weight:               389.5
##########                DOCK_Rotatable_Bonds:                   4
##########                       Formal_Charge:          -0.0100001
##########                     HBond_Acceptors:                   6
##########                        HBond_Donors:                   0
##########                         Heavy_Atoms:                  29
##########                          Grid_Score:          -31.544909
##########                     Grid_vdw_energy:          -30.550917
##########                      Grid_es_energy:           -0.993992
##########           Internal_energy_repulsive:            8.661382

@<TRIPOS>MOLECULE
ZINC001345266033
 56 61 1 0 0
SMALL
USER_CHARGES


@<TRIPOS>ATOM
      1 C1        -11.4193   -0.6699   52.6439 C.ar    1  ZINC001345266033   -0.1100
      2 C2        -10.7958   -0.1258   53.7638 C.ar    1  ZINC001345266033   -0.0900
      3 C3        -10.7923   -0.7887   54.9566 C.ar    1  ZINC001345266033   -0.1100
      4 C4        -11.4242   -2.0306   55.0534 C.ar    1  ZINC001345266033    0.0000
      5 C5        -12.0612   -2.5886   53.9151 C.ar    1  ZINC001345266033   -0.1100
      6 C6        -12.0447   -1.8790   52.7043 C.ar    1  ZINC001345266033   -0.0900
      7 C7        -12.6893   -3.8383   54.0403 C.ar    1  ZINC001345266033    0.1700
      8 N8        -12.6900   -4.4802   55.1837 N.ar    1  ZINC001345266033   -0.4800
      9 C9        -12.1170   -4.0207   56.2835 C.ar    1  ZINC001345266033    0.0900
     10 C10       -11.4607   -2.7968   56.2985 C.ar    1  ZINC001345266033   -0.0700
     11 C11       -10.8226   -2.2876   57.5273 C.2     1  ZINC001345266033    0.2300
     12 N12        -9.5777   -2.4827   57.8997 N.2     1  ZINC001345266033   -0.2600
     13 N13        -9.3593   -1.8958   59.0219 N.2     1  ZINC001345266033   -0.3000
     14 C14       -10.4502   -1.2905   59.4348 C.2     1  ZINC001345266033    0.3600
     15 N15       -10.5909   -0.5587   60.6007 N.3     1  ZINC001345266033   -0.4600
     16 C16        -9.6613   -1.0312   61.6338 C.3     1  ZINC001345266033    0.0600
     17 C17        -9.9853   -0.3622   62.9710 C.3     1  ZINC001345266033   -0.1100
     18 C18        -9.7946    1.1533   62.8359 C.3     1  ZINC001345266033   -0.0800
     19 C19       -10.6343    1.6457   61.6524 C.3     1  ZINC001345266033   -0.1300
     20 C20       -12.0406    2.1657   61.9462 C.3     1  ZINC001345266033   -0.1600
     21 C21       -10.9270    3.1423   61.5610 C.3     1  ZINC001345266033   -0.1700
     22 C22       -10.4156    0.8787   60.3450 C.3     1  ZINC001345266033    0.1100
     23 N23       -11.4169   -1.5131   58.4975 N.pl3   1  ZINC001345266033   -0.4600
     24 C24       -12.8013   -1.0345   58.5231 C.3     1  ZINC001345266033    0.1000
     25 C25       -13.6398   -1.9470   59.4204 C.3     1  ZINC001345266033   -0.1400
     26 H26       -13.0266   -2.3623   60.2201 H       1  ZINC001345266033    0.1000
     27 C27       -14.2851   -3.0814   58.5876 C.3     1  ZINC001345266033   -0.1500
     28 C28       -15.7033   -3.1721   59.2064 C.3     1  ZINC001345266033    0.0500
     29 O29       -16.0335   -1.7964   59.4947 O.3     1  ZINC001345266033   -0.3700
     30 C30       -14.8383   -1.1750   60.0053 C.3     1  ZINC001345266033    0.0300
     31 H31       -11.4109   -0.1224   51.7130 H       1  ZINC001345266033    0.1300
     32 H32       -10.3076    0.8346   53.6873 H       1  ZINC001345266033    0.1300
     33 H33       -10.3048   -0.3570   55.8182 H       1  ZINC001345266033    0.1600
     34 H34       -12.5245   -2.2879   51.8274 H       1  ZINC001345266033    0.1400
     35 H35       -13.1789   -4.2765   53.1832 H       1  ZINC001345266033    0.1700
     36 H36       -12.1605   -4.6088   57.1883 H       1  ZINC001345266033    0.1700
     37 H37        -9.7547   -2.1122   61.7378 H       1  ZINC001345266033    0.0700
     38 H38        -8.6405   -0.7835   61.3430 H       1  ZINC001345266033    0.0500
     39 H39       -11.0185   -0.5761   63.2445 H       1  ZINC001345266033    0.0800
     40 H40        -9.3169   -0.7460   63.7416 H       1  ZINC001345266033    0.0800
     41 H41       -10.1250    1.6469   63.7498 H       1  ZINC001345266033    0.0700
     42 H42        -8.7427    1.3753   62.6561 H       1  ZINC001345266033    0.0700
     43 H43       -12.8154    1.9681   61.2055 H       1  ZINC001345266033    0.0900
     44 H44       -12.3712    2.1637   62.9849 H       1  ZINC001345266033    0.0900
     45 H45       -10.5250    3.7826   62.3462 H       1  ZINC001345266033    0.1000
     46 H46       -10.9692    3.5870   60.5668 H       1  ZINC001345266033    0.1000
     47 H47        -9.4062    1.0638   59.9777 H       1  ZINC001345266033    0.0600
     48 H48       -11.1423    1.2087   59.6024 H       1  ZINC001345266033    0.0800
     49 H49       -12.8270   -0.0173   58.9141 H       1  ZINC001345266033    0.1100
     50 H50       -13.2083   -1.0454   57.5121 H       1  ZINC001345266033    0.1100
     51 H51       -14.3372   -2.8088   57.5336 H       1  ZINC001345266033    0.0800
     52 H52       -13.7426   -4.0176   58.7195 H       1  ZINC001345266033    0.0900
     53 H53       -16.4083   -3.5940   58.4902 H       1  ZINC001345266033    0.1000
     54 H54       -15.6854   -3.7626   60.1224 H       1  ZINC001345266033    0.0600
     55 H55       -14.8258   -1.2343   61.0936 H       1  ZINC001345266033    0.0600
     56 H56       -14.7981   -0.1329   59.6884 H       1  ZINC001345266033    0.0900
@<TRIPOS>BOND
     1     1     6   ar
     2     1     2   ar
     3     1    31    1
     4     2     3   ar
     5     2    32    1
     6     3     4   ar
     7     3    33    1
     8     4    10   ar
     9     4     5   ar
    10     5     6   ar
    11     5     7   ar
    12     6    34    1
    13     7     8   ar
    14     7    35    1
    15     8     9   ar
    16     9    10   ar
    17     9    36    1
    18    10    11    1
    19    11    23    1
    20    11    12    2
    21    12    13    1
    22    13    14    2
    23    14    15    1
    24    14    23    1
    25    15    22    1
    26    15    16    1
    27    16    17    1
    28    16    37    1
    29    16    38    1
    30    17    18    1
    31    17    39    1
    32    17    40    1
    33    18    19    1
    34    18    41    1
    35    18    42    1
    36    19    21    1
    37    19    20    1
    38    19    22    1
    39    20    21    1
    40    20    43    1
    41    20    44    1
    42    21    45    1
    43    21    46    1
    44    22    47    1
    45    22    48    1
    46    23    24    1
    47    24    25    1
    48    24    49    1
    49    24    50    1
    50    25    26    1
    51    25    30    1
    52    25    27    1
    53    27    28    1
    54    27    51    1
    55    27    52    1
    56    28    29    1
    57    28    53    1
    58    28    54    1
    59    29    30    1
    60    30    55    1
    61    30    56    1
@<TRIPOS>SUBSTRUCTURE
     1 ZINC001345266033        1 TEMP              0 ****  ****    0 ROOT


##########                                Name:    ZINC001087843226
##########                DOCK_Rotatable_Bonds:                   6
##########                         Heavy_Atoms:                  27
##########                    Molecular_Weight:             368.479
##########                DOCK_Rotatable_Bonds:                   6
##########                       Formal_Charge:        -4.47035e-07
##########                     HBond_Acceptors:                   6
##########                        HBond_Donors:                   1
##########                         Heavy_Atoms:                  27
##########                          Grid_Score:          -31.457104
##########                     Grid_vdw_energy:          -29.743816
##########                      Grid_es_energy:           -1.713288
##########           Internal_energy_repulsive:           29.000082

@<TRIPOS>MOLECULE
ZINC001087843226
 55 58 1 0 0
SMALL
USER_CHARGES


@<TRIPOS>ATOM
      1 C1         -9.0331   -2.7539   60.2442 C.3     1  ZINC001087843226   -0.1500
      2 C2         -9.2071   -1.6691   61.3089 C.3     1  ZINC001087843226   -0.1500
      3 C3        -10.3852   -0.7686   60.9318 C.3     1  ZINC001087843226    0.0700
      4 H4        -11.2802   -1.3724   60.7822 H       1  ZINC001087843226    0.1000
      5 C5        -10.0571    0.0123   59.6418 C.3     1  ZINC001087843226    0.1300
      6 H6         -8.9789    0.0912   59.5028 H       1  ZINC001087843226    0.1000
      7 N7        -10.6823   -0.6225   58.4788 N.am    1  ZINC001087843226   -0.7200
      8 C8         -9.9704   -0.8113   57.3502 C.2     1  ZINC001087843226    0.5600
      9 O9         -8.8099   -0.4535   57.2966 O.2     1  ZINC001087843226   -0.5300
     10 C10       -10.6008   -1.4535   56.1772 C.ar    1  ZINC001087843226   -0.1400
     11 C11       -11.1330   -2.7378   56.2864 C.ar    1  ZINC001087843226   -0.0800
     12 C12       -11.7201   -3.3318   55.1882 C.ar    1  ZINC001087843226   -0.1300
     13 C13       -11.7805   -2.6556   53.9842 C.ar    1  ZINC001087843226   -0.0400
     14 C14       -12.4238   -3.3120   52.7898 C.3     1  ZINC001087843226   -0.1200
     15 C15       -11.2543   -1.3782   53.8666 C.ar    1  ZINC001087843226   -0.1100
     16 C16       -10.6693   -0.7716   54.9585 C.ar    1  ZINC001087843226   -0.0300
     17 C17       -10.1748    0.6070   54.5765 C.3     1  ZINC001087843226   -0.0800
     18 C18       -10.1285    0.6058   53.0336 C.3     1  ZINC001087843226   -0.1200
     19 C19       -11.1998   -0.4476   52.6735 C.3     1  ZINC001087843226   -0.0800
     20 C20       -10.6793    1.4079   59.9104 C.3     1  ZINC001087843226   -0.1400
     21 C21       -10.4261    1.5763   61.4293 C.3     1  ZINC001087843226    0.0400
     22 N22       -10.6209    0.2220   61.9981 N.3     1  ZINC001087843226   -0.5100
     23 C23        -9.7204   -0.0055   63.1363 C.3     1  ZINC001087843226    0.1100
     24 C24        -9.9773    1.0347   64.1959 C.2     1  ZINC001087843226    0.0800
     25 N25       -11.1200    1.6115   64.4207 N.2     1  ZINC001087843226   -0.2700
     26 O26       -10.9333    2.5195   65.4947 O.3     1  ZINC001087843226    0.0300
     27 N27        -9.5701    2.4159   65.8741 N.2     1  ZINC001087843226   -0.2800
     28 C28        -9.0176    1.5292   65.1012 C.2     1  ZINC001087843226    0.0900
     29 C29        -7.5729    1.1040   65.1574 C.3     1  ZINC001087843226   -0.0900
     30 H30        -8.1526   -3.3530   60.4765 H       1  ZINC001087843226    0.0600
     31 H31        -9.9150   -3.3944   60.2305 H       1  ZINC001087843226    0.0600
     32 H32        -8.9077   -2.2874   59.2671 H       1  ZINC001087843226    0.0600
     33 H33        -9.4011   -2.1356   62.2748 H       1  ZINC001087843226    0.0800
     34 H34        -8.2979   -1.0711   61.3703 H       1  ZINC001087843226    0.0700
     35 H35       -11.6088   -0.9068   58.5212 H       1  ZINC001087843226    0.4000
     36 H36       -11.0854   -3.2659   57.2273 H       1  ZINC001087843226    0.1300
     37 H37       -12.1327   -4.3265   55.2693 H       1  ZINC001087843226    0.1300
     38 H38       -13.4866   -3.0711   52.7716 H       1  ZINC001087843226    0.0800
     39 H39       -11.9527   -2.9470   51.8771 H       1  ZINC001087843226    0.0700
     40 H40       -12.2972   -4.3925   52.8570 H       1  ZINC001087843226    0.0700
     41 H41       -10.8670    1.3695   54.9336 H       1  ZINC001087843226    0.0800
     42 H42        -9.1788    0.7781   54.9848 H       1  ZINC001087843226    0.0900
     43 H43       -10.4008    1.5838   52.6370 H       1  ZINC001087843226    0.0800
     44 H44        -9.1450    0.3012   52.6757 H       1  ZINC001087843226    0.0700
     45 H45       -10.9031   -0.9991   51.7814 H       1  ZINC001087843226    0.0800
     46 H46       -12.1656    0.0331   52.5182 H       1  ZINC001087843226    0.0800
     47 H47       -10.1641    2.1812   59.3405 H       1  ZINC001087843226    0.0800
     48 H48       -11.7467    1.4084   59.6900 H       1  ZINC001087843226    0.0800
     49 H49        -9.4077    1.9216   61.6082 H       1  ZINC001087843226    0.0600
     50 H50       -11.1451    2.2738   61.8587 H       1  ZINC001087843226    0.0800
     51 H51        -9.9009   -0.9977   63.5498 H       1  ZINC001087843226    0.1200
     52 H52        -8.6857    0.0655   62.8007 H       1  ZINC001087843226    0.0700
     53 H53        -7.4820    0.2064   65.7690 H       1  ZINC001087843226    0.1000
     54 H54        -7.2165    0.8942   64.1489 H       1  ZINC001087843226    0.0900
     55 H55        -6.9756    1.9039   65.5949 H       1  ZINC001087843226    0.0900
@<TRIPOS>BOND
     1     1     2    1
     2     1    30    1
     3     1    31    1
     4     1    32    1
     5     2     3    1
     6     2    33    1
     7     2    34    1
     8     3     4    1
     9     3    22    1
    10     3     5    1
    11     5     6    1
    12     5     7    1
    13     5    20    1
    14     7     8   am
    15     7    35    1
    16     8     9    2
    17     8    10    1
    18    10    16   ar
    19    10    11   ar
    20    11    12   ar
    21    11    36    1
    22    12    13   ar
    23    12    37    1
    24    13    14    1
    25    13    15   ar
    26    14    38    1
    27    14    39    1
    28    14    40    1
    29    15    19    1
    30    15    16   ar
    31    16    17    1
    32    17    18    1
    33    17    41    1
    34    17    42    1
    35    18    19    1
    36    18    43    1
    37    18    44    1
    38    19    45    1
    39    19    46    1
    40    20    21    1
    41    20    47    1
    42    20    48    1
    43    21    22    1
    44    21    49    1
    45    21    50    1
    46    22    23    1
    47    23    24    1
    48    23    51    1
    49    23    52    1
    50    24    28    1
    51    24    25    2
    52    25    26    1
    53    26    27    1
    54    27    28    2
    55    28    29    1
    56    29    53    1
    57    29    54    1
    58    29    55    1
@<TRIPOS>SUBSTRUCTURE
     1 ZINC001087843226        1 TEMP              0 ****  ****    0 ROOT


##########                                Name:    ZINC001009984555
##########                DOCK_Rotatable_Bonds:                   7
##########                         Heavy_Atoms:                  23
##########                    Molecular_Weight:             338.446
##########                DOCK_Rotatable_Bonds:                   7
##########                       Formal_Charge:           0.0400002
##########                     HBond_Acceptors:                   6
##########                        HBond_Donors:                   1
##########                         Heavy_Atoms:                  23
##########                          Grid_Score:          -31.434401
##########                     Grid_vdw_energy:          -30.451700
##########                      Grid_es_energy:           -0.982700
##########           Internal_energy_repulsive:           10.532625

@<TRIPOS>MOLECULE
ZINC001009984555
 46 47 1 0 0
SMALL
USER_CHARGES


@<TRIPOS>ATOM
      1 C1         -5.2580    1.1294   50.8223 C.3     1  ZINC001009984555   -0.1400
      2 S2         -6.9585    1.6571   50.4756 S.3     1  ZINC001009984555   -0.1800
      3 C3         -7.6978    1.7634   52.1287 C.3     1  ZINC001009984555   -0.1300
      4 C4         -7.0263    2.8637   52.9095 C.2     1  ZINC001009984555    0.5500
      5 O5         -6.3164    3.6652   52.3398 O.2     1  ZINC001009984555   -0.5100
      6 N6         -7.2147    2.9570   54.2407 N.am    1  ZINC001009984555   -0.6100
      7 C7         -8.0413    2.0496   55.0572 C.3     1  ZINC001009984555    0.1000
      8 C8         -7.4616    2.1655   56.4890 C.3     1  ZINC001009984555   -0.1100
      9 H9         -6.5733    1.5441   56.6025 H       1  ZINC001009984555    0.1000
     10 C10        -8.5159    1.8069   57.5382 C.3     1  ZINC001009984555    0.1300
     11 N11        -8.6257    0.3497   57.6418 N.am    1  ZINC001009984555   -0.7300
     12 C12        -9.5165   -0.2003   58.4907 C.2     1  ZINC001009984555    0.5600
     13 O13       -10.2297    0.5127   59.1692 O.2     1  ZINC001009984555   -0.5200
     14 C14        -9.6262   -1.6710   58.5965 C.ar    1  ZINC001009984555   -0.1200
     15 C15        -8.9739   -2.3497   59.6267 C.ar    1  ZINC001009984555   -0.0900
     16 C16        -9.0794   -3.7223   59.7210 C.ar    1  ZINC001009984555   -0.1000
     17 C17        -9.8295   -4.4269   58.7972 C.ar    1  ZINC001009984555   -0.1200
     18 C18       -10.4803   -3.7601   57.7712 C.ar    1  ZINC001009984555    0.0900
     19 F19       -11.2113   -4.4547   56.8722 F       1  ZINC001009984555   -0.1300
     20 C20       -10.3872   -2.3852   57.6700 C.ar    1  ZINC001009984555   -0.0500
     21 C21       -11.0950   -1.6603   56.5544 C.3     1  ZINC001009984555   -0.1200
     22 C22        -7.0984    3.6725   56.5569 C.3     1  ZINC001009984555   -0.1200
     23 C23        -6.6246    3.9767   55.1202 C.3     1  ZINC001009984555    0.1400
     24 H24        -6.9702    4.9652   54.8173 H       1  ZINC001009984555    0.0800
     25 C25        -5.0973    3.9165   55.0522 C.3     1  ZINC001009984555   -0.1700
     26 H26        -5.2735    0.1687   51.3367 H       1  ZINC001009984555    0.0800
     27 H27        -4.7100    1.0309   49.8852 H       1  ZINC001009984555    0.1100
     28 H28        -4.7687    1.8715   51.4530 H       1  ZINC001009984555    0.0800
     29 H29        -8.7621    1.9801   52.0375 H       1  ZINC001009984555    0.1100
     30 H30        -7.5633    0.8149   52.6486 H       1  ZINC001009984555    0.1100
     31 H31        -9.0833    2.3695   55.0427 H       1  ZINC001009984555    0.0800
     32 H32        -7.9528    1.0257   54.6939 H       1  ZINC001009984555    0.0800
     33 H33        -8.2223    2.2187   58.5039 H       1  ZINC001009984555    0.0800
     34 H34        -9.4787    2.2238   57.2430 H       1  ZINC001009984555    0.0800
     35 H35        -8.0574   -0.2193   57.0994 H       1  ZINC001009984555    0.4000
     36 H36        -8.3869   -1.8016   60.3488 H       1  ZINC001009984555    0.1300
     37 H37        -8.5745   -4.2477   60.5182 H       1  ZINC001009984555    0.1400
     38 H38        -9.9080   -5.5013   58.8753 H       1  ZINC001009984555    0.1400
     39 H39       -12.0494   -1.2787   56.9172 H       1  ZINC001009984555    0.0800
     40 H40       -10.4780   -0.8295   56.2120 H       1  ZINC001009984555    0.1000
     41 H41       -11.2695   -2.3483   55.7272 H       1  ZINC001009984555    0.0600
     42 H42        -7.9741    4.2691   56.8126 H       1  ZINC001009984555    0.0900
     43 H43        -6.2924    3.8431   57.2706 H       1  ZINC001009984555    0.0900
     44 H44        -4.7599    2.9204   55.3389 H       1  ZINC001009984555    0.0600
     45 H45        -4.7702    4.1323   54.0352 H       1  ZINC001009984555    0.0700
     46 H46        -4.6739    4.6538   55.7343 H       1  ZINC001009984555    0.0700
@<TRIPOS>BOND
     1     1     2    1
     2     1    26    1
     3     1    27    1
     4     1    28    1
     5     2     3    1
     6     3     4    1
     7     3    29    1
     8     3    30    1
     9     4     5    2
    10     4     6   am
    11     6    23    1
    12     6     7    1
    13     7     8    1
    14     7    31    1
    15     7    32    1
    16     8     9    1
    17     8    10    1
    18     8    22    1
    19    10    11    1
    20    10    33    1
    21    10    34    1
    22    11    12   am
    23    11    35    1
    24    12    13    2
    25    12    14    1
    26    14    20   ar
    27    14    15   ar
    28    15    16   ar
    29    15    36    1
    30    16    17   ar
    31    16    37    1
    32    17    18   ar
    33    17    38    1
    34    18    19    1
    35    18    20   ar
    36    20    21    1
    37    21    39    1
    38    21    40    1
    39    21    41    1
    40    22    23    1
    41    22    42    1
    42    22    43    1
    43    23    24    1
    44    23    25    1
    45    25    44    1
    46    25    45    1
    47    25    46    1
@<TRIPOS>SUBSTRUCTURE
     1 ZINC001009984555        1 TEMP              0 ****  ****    0 ROOT


##########                                Name:    ZINC000864477301
##########                DOCK_Rotatable_Bonds:                   6
##########                         Heavy_Atoms:                  26
##########                    Molecular_Weight:             393.891
##########                DOCK_Rotatable_Bonds:                   6
##########                       Formal_Charge:         -0.00999978
##########                     HBond_Acceptors:                   7
##########                        HBond_Donors:                   1
##########                         Heavy_Atoms:                  26
##########                          Grid_Score:          -31.412138
##########                     Grid_vdw_energy:          -31.187002
##########                      Grid_es_energy:           -0.225135
##########           Internal_energy_repulsive:           10.915149

@<TRIPOS>MOLECULE
ZINC000864477301
 46 47 1 0 0
SMALL
USER_CHARGES


@<TRIPOS>ATOM
      1 C1          2.3951    4.5732   41.8290 C.3     1  ZINC000864477301   -0.1500
      2 C2          2.9359    3.1742   41.5273 C.3     1  ZINC000864477301    0.0600
      3 O3          1.8907    2.1921   41.7539 O.3     1  ZINC000864477301   -0.3500
      4 C4          1.7899    1.6817   42.9964 C.2     1  ZINC000864477301    0.5100
      5 O5          2.7447    1.7162   43.7465 O.2     1  ZINC000864477301   -0.5000
      6 C6          0.5182    1.0799   43.4469 C.ar    1  ZINC000864477301   -0.1400
      7 C7          0.0896   -0.1361   42.9115 C.ar    1  ZINC000864477301   -0.0300
      8 C8         -1.0992   -0.6925   43.3367 C.ar    1  ZINC000864477301   -0.1500
      9 C9         -1.8661   -0.0480   44.2908 C.ar    1  ZINC000864477301   -0.0100
     10 C10        -1.4472    1.1576   44.8256 C.ar    1  ZINC000864477301   -0.4900
     11 S11        -2.4318    1.9699   46.0403 S.o     1  ZINC000864477301    1.3800
     12 O12        -2.0337    3.3285   45.9181 O.2     1  ZINC000864477301   -0.8100
     13 C13        -1.7983    1.2920   47.5990 C.3     1  ZINC000864477301   -0.4600
     14 H14        -2.0123    0.2242   47.6444 H       1  ZINC000864477301    0.1400
     15 C15        -0.2863    1.5129   47.6740 C.3     1  ZINC000864477301   -0.1400
     16 C16        -2.4657    1.9877   48.7574 C.2     1  ZINC000864477301    0.5500
     17 O17        -2.5769    3.1955   48.7569 O.2     1  ZINC000864477301   -0.5100
     18 N18        -2.9388    1.2678   49.7938 N.am    1  ZINC000864477301   -0.6800
     19 C19        -3.5588    1.9140   50.8697 C.ar    1  ZINC000864477301    0.1400
     20 C20        -2.8087    2.6968   51.7367 C.ar    1  ZINC000864477301   -0.0600
     21 C21        -1.3254    2.8520   51.5208 C.3     1  ZINC000864477301   -0.1100
     22 C22        -3.4233    3.3338   52.7975 C.ar    1  ZINC000864477301   -0.1100
     23 C23        -4.7841    3.1927   52.9966 C.ar    1  ZINC000864477301   -0.1000
     24 C24        -5.5350    2.4133   52.1353 C.ar    1  ZINC000864477301   -0.1100
     25 C25        -4.9276    1.7781   51.0690 C.ar    1  ZINC000864477301   -0.0200
     26 Cl26       -5.8705    0.8005   49.9879 Cl      1  ZINC000864477301   -0.0600
     27 C27        -0.2579    1.7220   44.4142 C.ar    1  ZINC000864477301    0.0100
     28 H28         1.5496    4.7849   41.1744 H       1  ZINC000864477301    0.0700
     29 H29         2.0708    4.6211   42.8685 H       1  ZINC000864477301    0.0700
     30 H30         3.1797    5.3105   41.6589 H       1  ZINC000864477301    0.0800
     31 H31         3.2603    3.1263   40.4879 H       1  ZINC000864477301    0.0700
     32 H32         3.7814    2.9625   42.1819 H       1  ZINC000864477301    0.0700
     33 H33         0.6870   -0.6400   42.1661 H       1  ZINC000864477301    0.1400
     34 H34        -1.4320   -1.6332   42.9234 H       1  ZINC000864477301    0.1400
     35 H35        -2.7962   -0.4876   44.6195 H       1  ZINC000864477301    0.1500
     36 H36         0.0944    1.1055   48.6107 H       1  ZINC000864477301    0.0700
     37 H37         0.1965    1.0097   46.8362 H       1  ZINC000864477301    0.0700
     38 H38        -0.0722    2.5807   47.6287 H       1  ZINC000864477301    0.0700
     39 H39        -2.8498    0.3019   49.7943 H       1  ZINC000864477301    0.4100
     40 H40        -1.1400    3.7110   50.8759 H       1  ZINC000864477301    0.0800
     41 H41        -0.8325    3.0053   52.4808 H       1  ZINC000864477301    0.0700
     42 H42        -0.9306    1.9520   51.0493 H       1  ZINC000864477301    0.0700
     43 H43        -2.8399    3.9425   53.4724 H       1  ZINC000864477301    0.1400
     44 H44        -5.2618    3.6918   53.8266 H       1  ZINC000864477301    0.1400
     45 H45        -6.5979    2.3048   52.2938 H       1  ZINC000864477301    0.1400
     46 H46         0.0682    2.6628   44.8326 H       1  ZINC000864477301    0.1400
@<TRIPOS>BOND
     1     1     2    1
     2     1    28    1
     3     1    29    1
     4     1    30    1
     5     2     3    1
     6     2    31    1
     7     2    32    1
     8     3     4    1
     9     4     5    2
    10     4     6    1
    11     6    27   ar
    12     6     7   ar
    13     7     8   ar
    14     7    33    1
    15     8     9   ar
    16     8    34    1
    17     9    10   ar
    18     9    35    1
    19    10    11    1
    20    10    27   ar
    21    11    12    2
    22    11    13    1
    23    13    14    1
    24    13    15    1
    25    13    16    1
    26    15    36    1
    27    15    37    1
    28    15    38    1
    29    16    17    2
    30    16    18   am
    31    18    19    1
    32    18    39    1
    33    19    25   ar
    34    19    20   ar
    35    20    21    1
    36    20    22   ar
    37    21    40    1
    38    21    41    1
    39    21    42    1
    40    22    23   ar
    41    22    43    1
    42    23    24   ar
    43    23    44    1
    44    24    25   ar
    45    24    45    1
    46    25    26    1
    47    27    46    1
@<TRIPOS>SUBSTRUCTURE
     1 ZINC000864477301        1 TEMP              0 ****  ****    0 ROOT


##########                                Name:    ZINC000646817380
##########                DOCK_Rotatable_Bonds:                   6
##########                         Heavy_Atoms:                  25
##########                    Molecular_Weight:             347.457
##########                DOCK_Rotatable_Bonds:                   6
##########                       Formal_Charge:           0.0199991
##########                     HBond_Acceptors:                   6
##########                        HBond_Donors:                   1
##########                         Heavy_Atoms:                  25
##########                          Grid_Score:          -31.410109
##########                     Grid_vdw_energy:          -31.921215
##########                      Grid_es_energy:            0.511106
##########           Internal_energy_repulsive:           60.523312

@<TRIPOS>MOLECULE
ZINC000646817380
 54 56 1 0 0
SMALL
USER_CHARGES


@<TRIPOS>ATOM
      1 C1        -10.9355    2.7045   65.9904 C.3     1  ZINC000646817380   -0.1500
      2 C2         -9.5661    2.7435   65.3091 C.3     1  ZINC000646817380   -0.0100
      3 C3         -8.4663    2.6909   66.3714 C.3     1  ZINC000646817380   -0.1500
      4 C4         -9.4302    1.5598   64.3863 C.2     1  ZINC000646817380   -0.0100
      5 C5         -9.7946    1.5036   63.0852 C.2     1  ZINC000646817380   -0.2200
      6 C6         -9.4551    0.1817   62.6912 C.2     1  ZINC000646817380    0.2400
      7 N7         -9.6304   -0.3868   61.4309 N.am    1  ZINC000646817380   -0.6100
      8 C8         -9.2003   -1.6415   61.1920 C.2     1  ZINC000646817380    0.5200
      9 O9         -8.6615   -2.2768   62.0745 O.2     1  ZINC000646817380   -0.4900
     10 C10        -9.3866   -2.2503   59.8406 C.2     1  ZINC000646817380    0.5300
     11 O11        -8.4629   -2.8232   59.3007 O.2     1  ZINC000646817380   -0.5100
     12 N12       -10.5802   -2.1634   59.2210 N.am    1  ZINC000646817380   -0.5800
     13 C13       -11.7781   -1.5014   59.7579 C.3     1  ZINC000646817380    0.1000
     14 C14       -12.9038   -1.6765   58.7169 C.3     1  ZINC000646817380   -0.1300
     15 C15       -12.4372   -2.9137   57.9052 C.3     1  ZINC000646817380   -0.1000
     16 H16       -12.7075   -3.8393   58.4137 H       1  ZINC000646817380    0.1000
     17 C17       -13.0068   -2.8849   56.4856 C.3     1  ZINC000646817380   -0.0700
     18 H18       -13.1457   -1.8540   56.1601 H       1  ZINC000646817380    0.0800
     19 C19       -12.0552   -3.6204   55.5194 C.3     1  ZINC000646817380   -0.1300
     20 C20       -13.0027   -4.3461   54.5321 C.3     1  ZINC000646817380   -0.1300
     21 C21       -14.1642   -4.8053   55.4481 C.3     1  ZINC000646817380   -0.1200
     22 C22       -14.3483   -3.6372   56.4405 C.3     1  ZINC000646817380   -0.0700
     23 C23       -14.6923   -4.1789   57.8295 C.3     1  ZINC000646817380   -0.1600
     24 C24       -15.4579   -2.7041   55.9515 C.3     1  ZINC000646817380   -0.1400
     25 C25       -10.8992   -2.7110   57.8899 C.3     1  ZINC000646817380    0.0900
     26 N26        -8.9448   -0.3944   63.7481 N.2     1  ZINC000646817380   -0.3800
     27 O27        -8.9192    0.3589   64.6936 O.3     1  ZINC000646817380    0.1100
     28 H28       -11.0338    3.5606   66.6578 H       1  ZINC000646817380    0.0700
     29 H29       -11.7191    2.7419   65.2337 H       1  ZINC000646817380    0.0600
     30 H30       -11.0293    1.7830   66.5652 H       1  ZINC000646817380    0.0600
     31 H31        -9.4724    3.6649   64.7345 H       1  ZINC000646817380    0.1100
     32 H32        -8.5600    1.7694   66.9462 H       1  ZINC000646817380    0.0600
     33 H33        -7.4907    2.7187   65.8861 H       1  ZINC000646817380    0.0600
     34 H34        -8.5646    3.5470   67.0389 H       1  ZINC000646817380    0.0700
     35 H35       -10.2406    2.2829   62.4849 H       1  ZINC000646817380    0.1900
     36 H36       -10.0622    0.1204   60.7259 H       1  ZINC000646817380    0.4300
     37 H37       -12.0684   -1.9670   60.6997 H       1  ZINC000646817380    0.0800
     38 H38       -11.5778   -0.4411   59.9124 H       1  ZINC000646817380    0.0800
     39 H39       -13.8563   -1.8747   59.2086 H       1  ZINC000646817380    0.0900
     40 H40       -12.9754   -0.7986   58.0749 H       1  ZINC000646817380    0.0800
     41 H41       -11.4245   -2.9073   54.9885 H       1  ZINC000646817380    0.0700
     42 H42       -11.4439   -4.3420   56.0615 H       1  ZINC000646817380    0.0800
     43 H43       -13.3630   -3.6587   53.7666 H       1  ZINC000646817380    0.0700
     44 H44       -12.5054   -5.2039   54.0793 H       1  ZINC000646817380    0.0700
     45 H45       -15.0727   -4.9569   54.8651 H       1  ZINC000646817380    0.0700
     46 H46       -13.8936   -5.7182   55.9787 H       1  ZINC000646817380    0.0700
     47 H47       -14.1164   -5.0848   58.0190 H       1  ZINC000646817380    0.0700
     48 H48       -14.4486   -3.4293   58.5823 H       1  ZINC000646817380    0.0600
     49 H49       -15.7568   -4.4084   57.8765 H       1  ZINC000646817380    0.0500
     50 H50       -16.3979   -3.2534   55.8996 H       1  ZINC000646817380    0.0600
     51 H51       -15.5625   -1.8696   56.6449 H       1  ZINC000646817380    0.0500
     52 H52       -15.2037   -2.3246   54.9620 H       1  ZINC000646817380    0.0600
     53 H53       -10.6172   -2.0071   57.1069 H       1  ZINC000646817380    0.0900
     54 H54       -10.3923   -3.6648   57.7443 H       1  ZINC000646817380    0.1000
@<TRIPOS>BOND
     1     1     2    1
     2     1    28    1
     3     1    29    1
     4     1    30    1
     5     2     3    1
     6     2     4    1
     7     2    31    1
     8     3    32    1
     9     3    33    1
    10     3    34    1
    11     4    27    1
    12     4     5    2
    13     5     6    1
    14     5    35    1
    15     6     7    1
    16     6    26    2
    17     7     8   am
    18     7    36    1
    19     8     9    2
    20     8    10    1
    21    10    11    2
    22    10    12   am
    23    12    25    1
    24    12    13    1
    25    13    14    1
    26    13    37    1
    27    13    38    1
    28    14    15    1
    29    14    39    1
    30    14    40    1
    31    15    16    1
    32    15    17    1
    33    15    25    1
    34    17    18    1
    35    17    22    1
    36    17    19    1
    37    19    20    1
    38    19    41    1
    39    19    42    1
    40    20    21    1
    41    20    43    1
    42    20    44    1
    43    21    22    1
    44    21    45    1
    45    21    46    1
    46    22    23    1
    47    22    24    1
    48    23    47    1
    49    23    48    1
    50    23    49    1
    51    24    50    1
    52    24    51    1
    53    24    52    1
    54    25    53    1
    55    25    54    1
    56    26    27    1
@<TRIPOS>SUBSTRUCTURE
     1 ZINC000646817380        1 TEMP              0 ****  ****    0 ROOT


##########                                Name:    ZINC000285228948
##########                DOCK_Rotatable_Bonds:                   8
##########                         Heavy_Atoms:                  23
##########                    Molecular_Weight:             339.822
##########                DOCK_Rotatable_Bonds:                   8
##########                       Formal_Charge:           0.0299997
##########                     HBond_Acceptors:                   7
##########                        HBond_Donors:                   3
##########                         Heavy_Atoms:                  23
##########                          Grid_Score:          -31.407009
##########                     Grid_vdw_energy:          -31.465921
##########                      Grid_es_energy:            0.058912
##########           Internal_energy_repulsive:           20.406174

@<TRIPOS>MOLECULE
ZINC000285228948
 45 46 1 0 0
SMALL
USER_CHARGES


@<TRIPOS>ATOM
      1 C1         -9.2903   -3.3699   59.6974 C.3     1  <0>        -0.1600
      2 C2         -9.9870   -2.0143   59.5636 C.3     1  <0>         0.1800
      3 H3         -9.5975   -1.4901   58.6909 H       1  <0>         0.1100
      4 C4         -9.7285   -1.1925   60.8001 C.ar    1  <0>        -0.0900
      5 C5         -8.9861   -1.7222   61.8391 C.ar    1  <0>        -0.1000
      6 C6         -8.7487   -0.9690   62.9733 C.ar    1  <0>        -0.1100
      7 C7         -9.2542    0.3153   63.0689 C.ar    1  <0>        -0.0300
      8 Cl8        -8.9560    1.2622   64.4930 Cl      1  <0>        -0.0700
      9 C9         -9.9972    0.8449   62.0287 C.ar    1  <0>        -0.1100
     10 C10       -10.2291    0.0928   60.8925 C.ar    1  <0>        -0.0900
     11 N11       -11.4290   -2.2199   59.4065 N.am    1  <0>        -0.6100
     12 C12       -12.2896   -2.3068   60.5888 C.3     1  <0>         0.0600
     13 C13       -11.9638   -2.3289   58.1741 C.2     1  <0>         0.5200
     14 O14       -13.1574   -2.5007   58.0441 O.2     1  <0>        -0.5200
     15 C15       -11.0788   -2.2377   56.9579 C.3     1  <0>         0.0300
     16 N16       -11.8815   -2.4695   55.7496 N.3     1  <0>        -0.4900
     17 C17       -11.8693   -3.9054   55.3699 C.3     1  <0>         0.0400
     18 C18       -12.2762   -3.8803   53.8751 C.3     1  <0>        -0.1400
     19 C19       -11.5700   -2.6109   53.3459 C.3     1  <0>         0.1100
     20 O20       -10.3307   -2.9558   52.7236 O.3     1  <0>        -0.5400
     21 C21       -12.4602   -1.8855   52.3700 C.2     1  <0>         0.5000
     22 N22       -13.6847   -1.4730   52.7530 N.am    1  <0>        -0.8500
     23 O23       -12.0745   -1.6727   51.2399 O.2     1  <0>        -0.5200
     24 C24       -11.3188   -1.7414   54.5917 C.3     1  <0>         0.0600
     25 H25        -8.2174   -3.2170   59.8143 H       1  <0>         0.0700
     26 H26        -9.6798   -3.8941   60.5701 H       1  <0>         0.0600
     27 H27        -9.4772   -3.9644   58.8031 H       1  <0>         0.0700
     28 H28        -8.5919   -2.7249   61.7645 H       1  <0>         0.1400
     29 H29        -8.1690   -1.3830   63.7851 H       1  <0>         0.1300
     30 H30       -10.3923    1.8473   62.1028 H       1  <0>         0.1400
     31 H31       -10.8087    0.5062   60.0805 H       1  <0>         0.1300
     32 H32       -12.6110   -1.3064   60.8786 H       1  <0>         0.0600
     33 H33       -13.1633   -2.9164   60.3582 H       1  <0>         0.0800
     34 H34       -11.7351   -2.7623   61.4092 H       1  <0>         0.0800
     35 H35       -10.6280   -1.2464   56.9100 H       1  <0>         0.1100
     36 H36       -10.2936   -2.9910   57.0225 H       1  <0>         0.0700
     37 H37       -10.8711   -4.3266   55.4897 H       1  <0>         0.0400
     38 H38       -12.5972   -4.4649   55.9574 H       1  <0>         0.1200
     39 H39       -11.9097   -4.7685   53.3605 H       1  <0>         0.0900
     40 H40       -13.3577   -3.7917   53.7712 H       1  <0>         0.0900
     41 H41       -10.1427   -3.9043   52.7205 H       1  <0>         0.3800
     42 H42       -14.2582   -1.0070   52.1246 H       1  <0>         0.4000
     43 H43       -13.9927   -1.6421   53.6572 H       1  <0>         0.4100
     44 H44       -11.8183   -0.7790   54.4798 H       1  <0>         0.1100
     45 H45       -10.2480   -1.5929   54.7311 H       1  <0>         0.0700
@<TRIPOS>BOND
     1     1     2    1
     2     1    25    1
     3     1    26    1
     4     1    27    1
     5     2     3    1
     6     2     4    1
     7     2    11    1
     8     4    10   ar
     9     4     5   ar
    10     5     6   ar
    11     5    28    1
    12     6     7   ar
    13     6    29    1
    14     7     8    1
    15     7     9   ar
    16     9    10   ar
    17     9    30    1
    18    10    31    1
    19    11    12    1
    20    11    13   am
    21    12    32    1
    22    12    33    1
    23    12    34    1
    24    13    14    2
    25    13    15    1
    26    15    16    1
    27    15    35    1
    28    15    36    1
    29    16    24    1
    30    16    17    1
    31    17    18    1
    32    17    37    1
    33    17    38    1
    34    18    19    1
    35    18    39    1
    36    18    40    1
    37    19    20    1
    38    19    21    1
    39    19    24    1
    40    20    41    1
    41    21    22   am
    42    21    23    2
    43    22    42    1
    44    22    43    1
    45    24    44    1
    46    24    45    1
@<TRIPOS>SUBSTRUCTURE
     1 <0>         1 TEMP              0 ****  ****    0 ROOT


##########                                Name:    ZINC000469391664
##########                DOCK_Rotatable_Bonds:                   6
##########                         Heavy_Atoms:                  29
##########                    Molecular_Weight:             408.524
##########                DOCK_Rotatable_Bonds:                   6
##########                       Formal_Charge:         -0.00999999
##########                     HBond_Acceptors:                   7
##########                        HBond_Donors:                   0
##########                         Heavy_Atoms:                  29
##########                          Grid_Score:          -31.405554
##########                     Grid_vdw_energy:          -30.726854
##########                      Grid_es_energy:           -0.678700
##########           Internal_energy_repulsive:           21.512468

@<TRIPOS>MOLECULE
ZINC000469391664
 53 56 1 0 0
SMALL
USER_CHARGES


@<TRIPOS>ATOM
      1 C1        -12.9695   -1.8993   51.7646 C.3     1  ZINC000469391664   -0.1500
      2 C2        -12.6740   -2.7385   53.0094 C.3     1  ZINC000469391664   -0.1000
      3 H3        -12.1672   -3.6577   52.7157 H       1  ZINC000469391664    0.0800
      4 C4        -13.9874   -3.0834   53.7152 C.3     1  ZINC000469391664   -0.1300
      5 C5        -13.6905   -3.9523   54.9414 C.3     1  ZINC000469391664    0.1100
      6 N6        -12.7143   -3.2553   55.7899 N.am    1  ZINC000469391664   -0.6100
      7 C7        -12.9700   -3.0391   57.0954 C.2     1  ZINC000469391664    0.5600
      8 O8        -14.0167   -3.4222   57.5816 O.2     1  ZINC000469391664   -0.5000
      9 C9        -11.9801   -2.3379   57.9345 C.ar    1  ZINC000469391664   -0.1100
     10 C10       -10.7985   -2.9796   58.3119 C.ar    1  ZINC000469391664   -0.0900
     11 C11        -9.8772   -2.3187   59.0956 C.ar    1  ZINC000469391664   -0.1000
     12 C12       -10.1170   -1.0195   59.5125 C.ar    1  ZINC000469391664   -0.0900
     13 C13       -11.2805   -0.3721   59.1480 C.ar    1  ZINC000469391664   -0.1000
     14 C14       -12.2173   -1.0197   58.3536 C.ar    1  ZINC000469391664    0.1500
     15 N15       -13.3910   -0.3691   57.9849 N.am    1  ZINC000469391664   -0.5800
     16 C16       -13.5286    0.1849   56.6357 C.3     1  ZINC000469391664    0.0900
     17 C17       -14.4011   -0.2487   58.8691 C.2     1  ZINC000469391664    0.6100
     18 O18       -15.4275    0.3202   58.5466 O.2     1  ZINC000469391664   -0.5200
     19 C19       -14.2633   -0.8028   60.2186 C.2     1  ZINC000469391664   -0.2600
     20 C20       -14.1034   -0.0726   61.3630 C.2     1  ZINC000469391664   -0.0500
     21 C21       -13.9997   -0.8487   62.4928 C.2     1  ZINC000469391664   -0.1500
     22 C22       -14.0719   -2.1685   62.2836 C.2     1  ZINC000469391664   -0.2600
     23 S23       -14.2847   -2.5130   60.6262 S.3     1  ZINC000469391664    0.2300
     24 C24       -11.4541   -2.7988   55.1883 C.3     1  ZINC000469391664    0.1000
     25 C25       -11.7763   -1.9425   53.9595 C.3     1  ZINC000469391664    0.1300
     26 H26       -12.2923   -1.0352   54.2735 H       1  ZINC000469391664    0.1000
     27 N27       -10.5325   -1.5850   53.2728 N.pl3   1  ZINC000469391664   -0.4500
     28 C28        -9.8040   -0.4407   53.4554 C.2     1  ZINC000469391664   -0.0500
     29 C29        -8.7423   -0.5190   52.6306 C.2     1  ZINC000469391664   -0.0300
     30 N30        -8.8205   -1.6794   51.9627 N.2     1  ZINC000469391664   -0.4900
     31 C31        -9.8875   -2.3257   52.3459 C.2     1  ZINC000469391664    0.1800
     32 H32       -12.0342   -1.6540   51.2614 H       1  ZINC000469391664    0.0600
     33 H33       -13.6084   -2.4662   51.0875 H       1  ZINC000469391664    0.0600
     34 H34       -13.4762   -0.9800   52.0581 H       1  ZINC000469391664    0.0600
     35 H35       -14.4825   -2.1653   54.0313 H       1  ZINC000469391664    0.0700
     36 H36       -14.6358   -3.6299   53.0305 H       1  ZINC000469391664    0.0900
     37 H37       -14.6099   -4.1185   55.5028 H       1  ZINC000469391664    0.1000
     38 H38       -13.2782   -4.9089   54.6202 H       1  ZINC000469391664    0.0800
     39 H39       -10.6071   -3.9926   57.9902 H       1  ZINC000469391664    0.1400
     40 H40        -8.9640   -2.8164   59.3865 H       1  ZINC000469391664    0.1400
     41 H41        -9.3892   -0.5101   60.1267 H       1  ZINC000469391664    0.1400
     42 H42       -11.4603    0.6405   59.4773 H       1  ZINC000469391664    0.1400
     43 H43       -14.0363   -0.5373   55.9964 H       1  ZINC000469391664    0.0600
     44 H44       -14.1114    1.1051   56.6784 H       1  ZINC000469391664    0.0900
     45 H45       -12.5406    0.3992   56.2285 H       1  ZINC000469391664    0.0700
     46 H46       -14.0623    1.0065   61.3780 H       1  ZINC000469391664    0.1500
     47 H47       -13.8692   -0.4243   63.4774 H       1  ZINC000469391664    0.1400
     48 H48       -14.0081   -2.9157   63.0609 H       1  ZINC000469391664    0.1600
     49 H49       -10.8979   -2.2037   55.9126 H       1  ZINC000469391664    0.1000
     50 H50       -10.8594   -3.6612   54.8872 H       1  ZINC000469391664    0.0800
     51 H51       -10.0362    0.3695   54.1307 H       1  ZINC000469391664    0.1700
     52 H52        -7.9643    0.2227   52.5254 H       1  ZINC000469391664    0.1700
     53 H53       -10.2057   -3.2898   51.9778 H       1  ZINC000469391664    0.2000
@<TRIPOS>BOND
     1     1     2    1
     2     1    32    1
     3     1    33    1
     4     1    34    1
     5     2     3    1
     6     2    25    1
     7     2     4    1
     8     4     5    1
     9     4    35    1
    10     4    36    1
    11     5     6    1
    12     5    37    1
    13     5    38    1
    14     6     7   am
    15     6    24    1
    16     7     8    2
    17     7     9    1
    18     9    14   ar
    19     9    10   ar
    20    10    11   ar
    21    10    39    1
    22    11    12   ar
    23    11    40    1
    24    12    13   ar
    25    12    41    1
    26    13    14   ar
    27    13    42    1
    28    14    15    1
    29    15    16    1
    30    15    17   am
    31    16    43    1
    32    16    44    1
    33    16    45    1
    34    17    18    2
    35    17    19    1
    36    19    23    1
    37    19    20    2
    38    20    21    1
    39    20    46    1
    40    21    22    2
    41    21    47    1
    42    22    23    1
    43    22    48    1
    44    24    25    1
    45    24    49    1
    46    24    50    1
    47    25    26    1
    48    25    27    1
    49    27    31    1
    50    27    28    1
    51    28    29    2
    52    28    51    1
    53    29    30    1
    54    29    52    1
    55    30    31    2
    56    31    53    1
@<TRIPOS>SUBSTRUCTURE
     1 ZINC000469391664        1 TEMP              0 ****  ****    0 ROOT


##########                                Name:    ZINC000012979878
##########                DOCK_Rotatable_Bonds:                   7
##########                         Heavy_Atoms:                  26
##########                    Molecular_Weight:             388.874
##########                DOCK_Rotatable_Bonds:                   7
##########                       Formal_Charge:          -0.0100003
##########                     HBond_Acceptors:                   7
##########                        HBond_Donors:                   1
##########                         Heavy_Atoms:                  26
##########                          Grid_Score:          -31.387140
##########                     Grid_vdw_energy:          -30.330944
##########                      Grid_es_energy:           -1.056195
##########           Internal_energy_repulsive:           11.679947

@<TRIPOS>MOLECULE
ZINC000012979878
 43 45 1 0 0
SMALL
USER_CHARGES


@<TRIPOS>ATOM
      1 C1        -14.8850   -1.5008   49.5565 C.3     1  <0>         0.0300
      2 O2        -14.2131   -2.0640   50.6849 O.3     1  <0>        -0.3100
      3 C3        -13.3317   -1.2641   51.3407 C.ar    1  <0>         0.1500
      4 C4        -13.1113    0.0334   50.9005 C.ar    1  <0>        -0.2200
      5 C5        -12.2148    0.8480   51.5660 C.ar    1  <0>        -0.0600
      6 C6        -11.5358    0.3739   52.6713 C.ar    1  <0>        -0.1800
      7 C7        -11.7524   -0.9244   53.1166 C.ar    1  <0>         0.1800
      8 N8        -11.0649   -1.4045   54.2356 N.am    1  <0>        -0.6700
      9 C9        -11.1523   -0.7516   55.4115 C.2     1  <0>         0.6000
     10 O10       -11.8296    0.2557   55.4993 O.2     1  <0>        -0.4900
     11 C11       -10.4314   -1.2550   56.5851 C.2     1  <0>        -0.3000
     12 C12        -9.4656   -0.5965   57.2740 C.2     1  <0>         0.1600
     13 C13        -8.9957    0.7871   56.9051 C.3     1  <0>        -0.0900
     14 N14        -8.9778   -1.2668   58.2875 N.2     1  <0>        -0.4500
     15 C15        -9.4606   -2.4473   58.5078 C.2     1  <0>         0.0600
     16 C16        -9.0233   -3.3609   59.6236 C.3     1  <0>         0.1300
     17 O17        -9.9710   -3.2964   60.6912 O.3     1  <0>        -0.3000
     18 C18        -9.9891   -2.1571   61.4323 C.ar    1  <0>         0.1300
     19 C19        -8.8868   -1.8103   62.1998 C.ar    1  <0>        -0.2000
     20 C20        -8.9071   -0.6521   62.9524 C.ar    1  <0>        -0.0700
     21 C21       -10.0260    0.1618   62.9413 C.ar    1  <0>        -0.0700
     22 Cl22      -10.0493    1.6166   63.8882 Cl      1  <0>        -0.0700
     23 C23       -11.1262   -0.1822   62.1760 C.ar    1  <0>        -0.0700
     24 C24       -11.1076   -1.3367   61.4176 C.ar    1  <0>        -0.1300
     25 S25       -10.6695   -2.8205   57.3581 S.3     1  <0>         0.2000
     26 C26       -12.6563   -1.7418   52.4529 C.ar    1  <0>        -0.1500
     27 H27       -15.4591   -0.6300   49.8729 H       1  <0>         0.0600
     28 H28       -14.1506   -1.2000   48.8093 H       1  <0>         0.0600
     29 H29       -15.5577   -2.2429   49.1264 H       1  <0>         0.1000
     30 H30       -13.6408    0.4069   50.0364 H       1  <0>         0.1300
     31 H31       -12.0446    1.8571   51.2208 H       1  <0>         0.1300
     32 H32       -10.8357    1.0125   53.1895 H       1  <0>         0.1300
     33 H33       -10.5250   -2.2073   54.1657 H       1  <0>         0.4100
     34 H34        -9.5984    1.5277   57.4310 H       1  <0>         0.0900
     35 H35        -7.9495    0.9030   57.1881 H       1  <0>         0.0800
     36 H36        -9.0995    0.9314   55.8298 H       1  <0>         0.1000
     37 H37        -8.9629   -4.3841   59.2528 H       1  <0>         0.0900
     38 H38        -8.0446   -3.0477   59.9872 H       1  <0>         0.1000
     39 H39        -8.0135   -2.4457   62.2094 H       1  <0>         0.1400
     40 H40        -8.0491   -0.3818   63.5500 H       1  <0>         0.1400
     41 H41       -11.9986    0.4545   62.1683 H       1  <0>         0.1400
     42 H42       -11.9666   -1.6049   60.8204 H       1  <0>         0.1400
     43 H43       -12.8269   -2.7511   52.7972 H       1  <0>         0.1400
@<TRIPOS>BOND
     1     1     2    1
     2     1    27    1
     3     1    28    1
     4     1    29    1
     5     2     3    1
     6     3    26   ar
     7     3     4   ar
     8     4     5   ar
     9     4    30    1
    10     5     6   ar
    11     5    31    1
    12     6     7   ar
    13     6    32    1
    14     7     8    1
    15     7    26   ar
    16     8     9   am
    17     8    33    1
    18     9    10    2
    19     9    11    1
    20    11    25    1
    21    11    12    2
    22    12    13    1
    23    12    14    1
    24    13    34    1
    25    13    35    1
    26    13    36    1
    27    14    15    2
    28    15    16    1
    29    15    25    1
    30    16    17    1
    31    16    37    1
    32    16    38    1
    33    17    18    1
    34    18    24   ar
    35    18    19   ar
    36    19    20   ar
    37    19    39    1
    38    20    21   ar
    39    20    40    1
    40    21    22    1
    41    21    23   ar
    42    23    24   ar
    43    23    41    1
    44    24    42    1
    45    26    43    1
@<TRIPOS>SUBSTRUCTURE
     1 <0>         1 TEMP              0 ****  ****    0 ROOT


##########                                Name:    ZINC000225856071
##########                DOCK_Rotatable_Bonds:                   6
##########                         Heavy_Atoms:                  29
##########                    Molecular_Weight:             409.549
##########                DOCK_Rotatable_Bonds:                   6
##########                       Formal_Charge:         -0.00999989
##########                     HBond_Acceptors:                   5
##########                        HBond_Donors:                   1
##########                         Heavy_Atoms:                  29
##########                          Grid_Score:          -31.315170
##########                     Grid_vdw_energy:          -30.425760
##########                      Grid_es_energy:           -0.889410
##########           Internal_energy_repulsive:           31.742950

@<TRIPOS>MOLECULE
ZINC000225856071
 56 58 1 0 0
SMALL
USER_CHARGES


@<TRIPOS>ATOM
      1 C1        -10.5561    1.1922   62.6169 C.3     1  ZINC000225856071    0.0200
      2 O2        -10.8816   -0.1747   62.8769 O.3     1  ZINC000225856071   -0.3100
      3 C3        -11.0186   -0.9920   61.7997 C.ar    1  ZINC000225856071    0.1900
      4 C4         -9.8952   -1.5199   61.1809 C.ar    1  ZINC000225856071   -0.2300
      5 C5        -10.0372   -2.3510   60.0862 C.ar    1  ZINC000225856071    0.0700
      6 C6         -8.8169   -2.9249   59.4134 C.3     1  ZINC000225856071   -0.1800
      7 C7        -11.2977   -2.6568   59.6080 C.ar    1  ZINC000225856071   -0.7100
      8 S8        -11.4754   -3.7174   58.2123 S.o2    1  ZINC000225856071    2.7000
      9 O9        -10.5565   -4.7849   58.3998 O.2     1  ZINC000225856071   -0.9600
     10 O10       -12.8712   -3.9156   58.0342 O.2     1  ZINC000225856071   -0.9500
     11 N11       -10.9498   -2.8753   56.8867 N.am    1  ZINC000225856071   -1.1100
     12 C12       -11.6056   -1.6210   56.5085 C.3     1  ZINC000225856071    0.2400
     13 H13       -11.8617   -1.0595   57.4070 H       1  ZINC000225856071    0.1100
     14 C14       -12.8603   -1.9246   55.7312 C.ar    1  ZINC000225856071   -0.1000
     15 C15       -12.9537   -3.0929   54.9982 C.ar    1  ZINC000225856071   -0.1000
     16 C16       -14.1047   -3.3715   54.2852 C.ar    1  ZINC000225856071   -0.1200
     17 C17       -15.1627   -2.4819   54.3055 C.ar    1  ZINC000225856071   -0.1100
     18 C18       -15.0697   -1.3141   55.0393 C.ar    1  ZINC000225856071   -0.1100
     19 C19       -13.9204   -1.0375   55.7558 C.ar    1  ZINC000225856071   -0.1000
     20 C20       -10.6711   -0.8033   55.6545 C.ar    1  ZINC000225856071   -0.0900
     21 C21       -10.5853   -1.0460   54.2966 C.ar    1  ZINC000225856071   -0.1000
     22 C22        -9.7280   -0.2957   53.5131 C.ar    1  ZINC000225856071   -0.1200
     23 C23        -8.9572    0.6971   54.0878 C.ar    1  ZINC000225856071   -0.0800
     24 C24        -8.0224    1.5145   53.2338 C.3     1  ZINC000225856071   -0.1200
     25 C25        -9.0440    0.9407   55.4459 C.ar    1  ZINC000225856071   -0.1200
     26 C26        -9.9038    0.1934   56.2284 C.ar    1  ZINC000225856071   -0.0600
     27 C27        -9.9985    0.4589   57.7089 C.3     1  ZINC000225856071   -0.1300
     28 C28       -12.4193   -2.1321   60.2235 C.ar    1  ZINC000225856071    0.0200
     29 C29       -12.2829   -1.3043   61.3208 C.ar    1  ZINC000225856071   -0.1400
     30 C30       -13.5057   -0.7332   61.9914 C.3     1  ZINC000225856071   -0.1100
     31 H31       -11.3385    1.6421   62.0055 H       1  ZINC000225856071    0.0600
     32 H32       -10.4763    1.7325   63.5602 H       1  ZINC000225856071    0.1000
     33 H33        -9.6052    1.2447   62.0865 H       1  ZINC000225856071    0.0600
     34 H34        -8.9101   -1.2813   61.5542 H       1  ZINC000225856071    0.1400
     35 H35        -8.5673   -3.8829   59.8695 H       1  ZINC000225856071    0.0900
     36 H36        -9.0214   -3.0698   58.3527 H       1  ZINC000225856071    0.1000
     37 H37        -7.9796   -2.2371   59.5314 H       1  ZINC000225856071    0.0800
     38 H38       -10.2079   -3.2124   56.3608 H       1  ZINC000225856071    0.4200
     39 H39       -12.1271   -3.7879   54.9823 H       1  ZINC000225856071    0.1200
     40 H40       -14.1773   -4.2839   53.7119 H       1  ZINC000225856071    0.1200
     41 H41       -16.0616   -2.6992   53.7479 H       1  ZINC000225856071    0.1200
     42 H42       -15.8961   -0.6190   55.0549 H       1  ZINC000225856071    0.1200
     43 H43       -13.8477   -0.1251   56.3290 H       1  ZINC000225856071    0.1200
     44 H44       -11.1878   -1.8218   53.8475 H       1  ZINC000225856071    0.1200
     45 H45        -9.6606   -0.4859   52.4521 H       1  ZINC000225856071    0.1200
     46 H46        -8.5476    2.3926   52.8582 H       1  ZINC000225856071    0.0700
     47 H47        -7.1673    1.8306   53.8314 H       1  ZINC000225856071    0.0700
     48 H48        -7.6762    0.9114   52.3945 H       1  ZINC000225856071    0.0700
     49 H49        -8.4419    1.7168   55.8949 H       1  ZINC000225856071    0.1200
     50 H50       -10.7701    1.2059   57.8954 H       1  ZINC000225856071    0.0800
     51 H51       -10.2539   -0.4648   58.2281 H       1  ZINC000225856071    0.0700
     52 H52        -9.0399    0.8277   58.0739 H       1  ZINC000225856071    0.0700
     53 H53       -13.4031   -2.3728   59.8483 H       1  ZINC000225856071    0.1500
     54 H54       -13.8413   -1.4129   62.7748 H       1  ZINC000225856071    0.0700
     55 H55       -13.2612    0.2342   62.4300 H       1  ZINC000225856071    0.0700
     56 H56       -14.2991   -0.6080   61.2545 H       1  ZINC000225856071    0.0700
@<TRIPOS>BOND
     1     1     2    1
     2     1    31    1
     3     1    32    1
     4     1    33    1
     5     2     3    1
     6     3    29   ar
     7     3     4   ar
     8     4     5   ar
     9     4    34    1
    10     5     6    1
    11     5     7   ar
    12     6    35    1
    13     6    36    1
    14     6    37    1
    15     7     8    1
    16     7    28   ar
    17     8     9    2
    18     8    10    2
    19     8    11   am
    20    11    12    1
    21    11    38    1
    22    12    13    1
    23    12    14    1
    24    12    20    1
    25    14    19   ar
    26    14    15   ar
    27    15    16   ar
    28    15    39    1
    29    16    17   ar
    30    16    40    1
    31    17    18   ar
    32    17    41    1
    33    18    19   ar
    34    18    42    1
    35    19    43    1
    36    20    26   ar
    37    20    21   ar
    38    21    22   ar
    39    21    44    1
    40    22    23   ar
    41    22    45    1
    42    23    24    1
    43    23    25   ar
    44    24    46    1
    45    24    47    1
    46    24    48    1
    47    25    26   ar
    48    25    49    1
    49    26    27    1
    50    27    50    1
    51    27    51    1
    52    27    52    1
    53    28    29   ar
    54    28    53    1
    55    29    30    1
    56    30    54    1
    57    30    55    1
    58    30    56    1
@<TRIPOS>SUBSTRUCTURE
     1 ZINC000225856071        1 TEMP              0 ****  ****    0 ROOT


##########                                Name:    ZINC000979274057
##########                DOCK_Rotatable_Bonds:                   6
##########                         Heavy_Atoms:                  24
##########                    Molecular_Weight:              330.39
##########                DOCK_Rotatable_Bonds:                   6
##########                       Formal_Charge:          0.00999946
##########                     HBond_Acceptors:                   8
##########                        HBond_Donors:                   1
##########                         Heavy_Atoms:                  24
##########                          Grid_Score:          -31.301796
##########                     Grid_vdw_energy:          -29.101845
##########                      Grid_es_energy:           -2.199952
##########           Internal_energy_repulsive:           10.596995

@<TRIPOS>MOLECULE
ZINC000979274057
 46 48 1 0 0
SMALL
USER_CHARGES


@<TRIPOS>ATOM
      1 C1        -10.2767   -0.2247   62.6307 C.3     1  ZINC000979274057   -0.1400
      2 C2        -10.7225   -0.8864   61.3252 C.3     1  ZINC000979274057    0.1000
      3 H3        -10.8155   -1.9620   61.4763 H       1  ZINC000979274057    0.0600
      4 N4         -9.7265   -0.6235   60.2779 N.3     1  ZINC000979274057   -0.6700
      5 C5         -8.9438   -1.8306   59.9808 C.3     1  ZINC000979274057    0.1300
      6 C6         -9.6712   -2.6612   58.9551 C.ar    1  ZINC000979274057    0.3200
      7 N7        -10.2813   -2.0563   57.9555 N.ar    1  ZINC000979274057   -0.5200
      8 C8        -10.9300   -2.7526   57.0361 C.ar    1  ZINC000979274057    0.1500
      9 C9        -10.9619   -4.1348   57.1351 C.ar    1  ZINC000979274057   -0.2300
     10 C10       -10.3088   -4.7346   58.2002 C.ar    1  ZINC000979274057    0.1500
     11 N11        -9.6759   -3.9734   59.0785 N.ar    1  ZINC000979274057   -0.5000
     12 C12       -12.0750   -0.3126   60.8984 C.3     1  ZINC000979274057    0.0800
     13 H13       -12.1332    0.7365   61.1883 H       1  ZINC000979274057    0.0700
     14 C14       -13.2020   -1.0957   61.5814 C.3     1  ZINC000979274057    0.0800
     15 N15       -14.4853   -0.6518   61.0144 N.am    1  ZINC000979274057   -0.6000
     16 C16       -15.5051   -0.2796   61.8132 C.2     1  ZINC000979274057    0.6100
     17 O17       -16.5579    0.0845   61.3253 O.2     1  ZINC000979274057   -0.5400
     18 C18       -15.3446   -0.3139   63.2772 C.2     1  ZINC000979274057   -0.0600
     19 C19       -14.6430    0.5794   64.0327 C.2     1  ZINC000979274057    0.0400
     20 N20       -14.7550    0.1779   65.3207 N.pl3   1  ZINC000979274057   -0.4600
     21 C21       -14.1613    0.8380   66.4860 C.3     1  ZINC000979274057    0.0700
     22 C22       -15.5170   -0.9465   65.3389 C.2     1  ZINC000979274057    0.1900
     23 N23       -15.8728   -1.2371   64.1209 N.2     1  ZINC000979274057   -0.4600
     24 C24       -14.6223   -0.6258   59.5495 C.3     1  ZINC000979274057    0.0500
     25 C25       -13.4260    0.1345   58.9656 C.3     1  ZINC000979274057    0.0500
     26 O26       -12.2151   -0.4247   59.4801 O.3     1  ZINC000979274057   -0.3600
     27 H27        -9.3131   -0.6336   62.9347 H       1  ZINC000979274057    0.0600
     28 H28       -10.1836    0.8507   62.4796 H       1  ZINC000979274057    0.0700
     29 H29       -11.0157   -0.4198   63.4078 H       1  ZINC000979274057    0.0600
     30 H30       -10.1653   -0.2628   59.4440 H       1  ZINC000979274057    0.3500
     31 H31        -7.9676   -1.5436   59.5898 H       1  ZINC000979274057    0.1000
     32 H32        -8.8130   -2.4125   60.8931 H       1  ZINC000979274057    0.0600
     33 H33       -11.4280   -2.2508   56.2197 H       1  ZINC000979274057    0.1700
     34 H34       -11.4835   -4.7299   56.4002 H       1  ZINC000979274057    0.1500
     35 H35       -10.3128   -5.8089   58.3098 H       1  ZINC000979274057    0.1700
     36 H36       -13.0700   -2.1624   61.4001 H       1  ZINC000979274057    0.0700
     37 H37       -13.1873   -0.9005   62.6536 H       1  ZINC000979274057    0.1000
     38 H38       -14.1017    1.4416   63.6723 H       1  ZINC000979274057    0.1900
     39 H39       -14.8596    1.5762   66.8806 H       1  ZINC000979274057    0.0800
     40 H40       -13.9457    0.0950   67.2539 H       1  ZINC000979274057    0.0900
     41 H41       -13.2367    1.3342   66.1908 H       1  ZINC000979274057    0.0900
     42 H42       -15.7874   -1.5066   66.2218 H       1  ZINC000979274057    0.2100
     43 H43       -14.6332   -1.6452   59.1636 H       1  ZINC000979274057    0.0700
     44 H44       -15.5479   -0.1194   59.2762 H       1  ZINC000979274057    0.1500
     45 H45       -13.4344    0.0472   57.8790 H       1  ZINC000979274057    0.1100
     46 H46       -13.4897    1.1854   59.2476 H       1  ZINC000979274057    0.0500
@<TRIPOS>BOND
     1     1     2    1
     2     1    27    1
     3     1    28    1
     4     1    29    1
     5     2     3    1
     6     2     4    1
     7     2    12    1
     8     4     5    1
     9     4    30    1
    10     5     6    1
    11     5    31    1
    12     5    32    1
    13     6    11   ar
    14     6     7   ar
    15     7     8   ar
    16     8     9   ar
    17     8    33    1
    18     9    10   ar
    19     9    34    1
    20    10    11   ar
    21    10    35    1
    22    12    13    1
    23    12    26    1
    24    12    14    1
    25    14    15    1
    26    14    36    1
    27    14    37    1
    28    15    16   am
    29    15    24    1
    30    16    17    2
    31    16    18    1
    32    18    23    1
    33    18    19    2
    34    19    20    1
    35    19    38    1
    36    20    21    1
    37    20    22    1
    38    21    39    1
    39    21    40    1
    40    21    41    1
    41    22    23    2
    42    22    42    1
    43    24    25    1
    44    24    43    1
    45    24    44    1
    46    25    26    1
    47    25    45    1
    48    25    46    1
@<TRIPOS>SUBSTRUCTURE
     1 ZINC000979274057        1 TEMP              0 ****  ****    0 ROOT


##########                                Name:    ZINC000461336108
##########                DOCK_Rotatable_Bonds:                   5
##########                         Heavy_Atoms:                  26
##########                    Molecular_Weight:             373.522
##########                DOCK_Rotatable_Bonds:                   5
##########                       Formal_Charge:        -3.42727e-07
##########                     HBond_Acceptors:                   7
##########                        HBond_Donors:                   0
##########                         Heavy_Atoms:                  26
##########                          Grid_Score:          -31.287436
##########                     Grid_vdw_energy:          -31.044373
##########                      Grid_es_energy:           -0.243063
##########           Internal_energy_repulsive:           11.854210

@<TRIPOS>MOLECULE
ZINC000461336108
 53 56 1 0 0
SMALL
USER_CHARGES


@<TRIPOS>ATOM
      1 C1         -8.9358   -1.7016   59.4055 C.3     1  ZINC000461336108   -0.1300
      2 C2        -10.1155   -1.6460   60.3783 C.3     1  ZINC000461336108    0.0700
      3 H3        -10.5055   -2.6522   60.5319 H       1  ZINC000461336108    0.0800
      4 C4         -9.6518   -1.0849   61.6928 C.2     1  ZINC000461336108    0.5300
      5 O5         -8.5901   -1.4605   62.1429 O.2     1  ZINC000461336108   -0.5300
      6 N6        -10.3607   -0.1884   62.3870 N.am    1  ZINC000461336108   -0.6100
      7 C7         -9.8385    0.2695   63.6769 C.3     1  ZINC000461336108    0.0700
      8 C8        -11.6317    0.3547   61.9165 C.3     1  ZINC000461336108    0.1200
      9 C9        -12.2138   -0.5443   60.8242 C.3     1  ZINC000461336108    0.0400
     10 N10       -11.1718   -0.7941   59.8157 N.3     1  ZINC000461336108   -0.4300
     11 C11       -11.7117   -1.3657   58.6747 C.2     1  ZINC000461336108    0.3300
     12 N12       -12.0147   -2.6311   58.5046 N.2     1  ZINC000461336108   -0.2500
     13 N13       -12.4956   -2.8105   57.3264 N.2     1  ZINC000461336108   -0.2800
     14 C14       -12.5278   -1.6797   56.6800 C.2     1  ZINC000461336108    0.2000
     15 C15       -13.0232   -1.4692   55.2724 C.3     1  ZINC000461336108   -0.0300
     16 C16       -11.8724   -1.6887   54.2885 C.3     1  ZINC000461336108   -0.0900
     17 C17       -11.6824   -3.1995   54.0048 C.3     1  ZINC000461336108   -0.1200
     18 C18       -10.9751   -3.2022   52.6268 C.3     1  ZINC000461336108   -0.1200
     19 C19       -11.6466   -2.0478   51.8546 C.3     1  ZINC000461336108   -0.1300
     20 C20       -12.2170   -1.0855   52.9111 C.3     1  ZINC000461336108   -0.1200
     21 N21       -12.0343   -0.7181   57.5177 N.pl3   1  ZINC000461336108   -0.4900
     22 C22       -11.8767    0.7096   57.2299 C.3     1  ZINC000461336108    0.1700
     23 C23       -10.4107    1.0404   57.1173 C.2     1  ZINC000461336108   -0.2400
     24 C24        -9.6929    1.6779   58.0433 C.2     1  ZINC000461336108   -0.0900
     25 C25        -8.3611    1.8702   57.7188 C.2     1  ZINC000461336108   -0.1400
     26 C26        -7.9974    1.3888   56.5292 C.2     1  ZINC000461336108   -0.2000
     27 S27        -9.3829    0.6382   55.7479 S.3     1  ZINC000461336108    0.1200
     28 H28        -8.5446   -0.6960   59.2509 H       1  ZINC000461336108    0.0800
     29 H29        -8.1527   -2.3364   59.8199 H       1  ZINC000461336108    0.0800
     30 H30        -9.2699   -2.1120   58.4525 H       1  ZINC000461336108    0.0700
     31 H31        -8.8897   -0.2265   63.8815 H       1  ZINC000461336108    0.0900
     32 H32        -9.6850    1.3481   63.6445 H       1  ZINC000461336108    0.0700
     33 H33       -10.5523    0.0276   64.4644 H       1  ZINC000461336108    0.0600
     34 H34       -12.3318    0.4106   62.7501 H       1  ZINC000461336108    0.0900
     35 H35       -11.4708    1.3549   61.5141 H       1  ZINC000461336108    0.0900
     36 H36       -12.5352   -1.4897   61.2615 H       1  ZINC000461336108    0.0500
     37 H37       -13.0640   -0.0476   60.3566 H       1  ZINC000461336108    0.1100
     38 H38       -13.8237   -2.1776   55.0592 H       1  ZINC000461336108    0.0800
     39 H39       -13.4010   -0.4520   55.1685 H       1  ZINC000461336108    0.1000
     40 H40       -10.9517   -1.2526   54.6763 H       1  ZINC000461336108    0.0900
     41 H41       -11.0499   -3.6586   54.7645 H       1  ZINC000461336108    0.0600
     42 H42       -12.6460   -3.7055   53.9453 H       1  ZINC000461336108    0.0600
     43 H43        -9.9083   -3.0123   52.7451 H       1  ZINC000461336108    0.0700
     44 H44       -11.1402   -4.1504   52.1151 H       1  ZINC000461336108    0.0700
     45 H45       -10.9097   -1.5321   51.2390 H       1  ZINC000461336108    0.0700
     46 H46       -12.4510   -2.4350   51.2292 H       1  ZINC000461336108    0.0600
     47 H47       -13.2983   -1.0057   52.7985 H       1  ZINC000461336108    0.0700
     48 H48       -11.7570   -0.1027   52.8082 H       1  ZINC000461336108    0.0700
     49 H49       -12.3762    0.9482   56.2908 H       1  ZINC000461336108    0.1200
     50 H50       -12.3201    1.2940   58.0360 H       1  ZINC000461336108    0.1000
     51 H51       -10.1188    2.0186   58.9755 H       1  ZINC000461336108    0.1400
     52 H52        -7.6691    2.3723   58.3786 H       1  ZINC000461336108    0.1500
     53 H53        -7.0032    1.4478   56.1113 H       1  ZINC000461336108    0.1700
@<TRIPOS>BOND
     1     1     2    1
     2     1    28    1
     3     1    29    1
     4     1    30    1
     5     2     3    1
     6     2    10    1
     7     2     4    1
     8     4     5    2
     9     4     6   am
    10     6     7    1
    11     6     8    1
    12     7    31    1
    13     7    32    1
    14     7    33    1
    15     8     9    1
    16     8    34    1
    17     8    35    1
    18     9    10    1
    19     9    36    1
    20     9    37    1
    21    10    11    1
    22    11    21    1
    23    11    12    2
    24    12    13    1
    25    13    14    2
    26    14    15    1
    27    14    21    1
    28    15    16    1
    29    15    38    1
    30    15    39    1
    31    16    20    1
    32    16    17    1
    33    16    40    1
    34    17    18    1
    35    17    41    1
    36    17    42    1
    37    18    19    1
    38    18    43    1
    39    18    44    1
    40    19    20    1
    41    19    45    1
    42    19    46    1
    43    20    47    1
    44    20    48    1
    45    21    22    1
    46    22    23    1
    47    22    49    1
    48    22    50    1
    49    23    27    1
    50    23    24    2
    51    24    25    1
    52    24    51    1
    53    25    26    2
    54    25    52    1
    55    26    27    1
    56    26    53    1
@<TRIPOS>SUBSTRUCTURE
     1 ZINC000461336108        1 TEMP              0 ****  ****    0 ROOT


##########                                Name:    ZINC000422507946
##########                DOCK_Rotatable_Bonds:                   7
##########                         Heavy_Atoms:                  25
##########                    Molecular_Weight:             364.484
##########                DOCK_Rotatable_Bonds:                   7
##########                       Formal_Charge:          0.00999952
##########                     HBond_Acceptors:                   6
##########                        HBond_Donors:                   1
##########                         Heavy_Atoms:                  25
##########                          Grid_Score:          -31.280909
##########                     Grid_vdw_energy:          -31.355330
##########                      Grid_es_energy:            0.074421
##########           Internal_energy_repulsive:           30.812185

@<TRIPOS>MOLECULE
ZINC000422507946
 50 52 1 0 0
SMALL
USER_CHARGES


@<TRIPOS>ATOM
      1 C1        -14.0829    0.2302   61.4534 C.3     1  ZINC000422507946   -0.1400
      2 C2        -14.9752   -0.9578   61.0884 C.3     1  ZINC000422507946   -0.0400
      3 H3        -15.0010   -1.6781   61.9061 H       1  ZINC000422507946    0.1100
      4 C4        -14.4719   -1.6309   59.7946 C.3     1  ZINC000422507946   -0.1400
      5 C5        -15.6799   -2.1767   59.0135 C.3     1  ZINC000422507946    0.1400
      6 H6        -16.0872   -3.0510   59.5210 H       1  ZINC000422507946    0.1100
      7 N7        -15.2758   -2.5322   57.6510 N.am    1  ZINC000422507946   -0.6900
      8 C8        -14.5153   -3.6241   57.4369 C.2     1  ZINC000422507946    0.5100
      9 O9        -14.1666   -4.3136   58.3726 O.2     1  ZINC000422507946   -0.5000
     10 C10       -14.1016   -3.9858   56.0471 C.2     1  ZINC000422507946    0.5100
     11 O11       -14.7084   -4.8411   55.4366 O.2     1  ZINC000422507946   -0.5200
     12 N12       -13.0544   -3.3619   55.4719 N.am    1  ZINC000422507946   -0.5700
     13 C13       -12.3219   -2.3294   56.2092 C.3     1  ZINC000422507946    0.1400
     14 C14       -11.3676   -2.9832   57.1751 C.ar    1  ZINC000422507946   -0.0800
     15 C15       -11.2940   -4.3616   57.2471 C.ar    1  ZINC000422507946   -0.1100
     16 C16       -10.4190   -4.9629   58.1328 C.ar    1  ZINC000422507946   -0.0900
     17 C17        -9.6169   -4.1863   58.9469 C.ar    1  ZINC000422507946   -0.1500
     18 C18        -9.6895   -2.8052   58.8753 C.ar    1  ZINC000422507946    0.1000
     19 F19        -8.9058   -2.0450   59.6708 F       1  ZINC000422507946   -0.1400
     20 C20       -10.5622   -2.2043   57.9844 C.ar    1  ZINC000422507946   -0.1500
     21 C21       -12.6487   -3.7164   54.1096 C.3     1  ZINC000422507946    0.1400
     22 C22       -13.2986   -2.7512   53.0968 C.3     1  ZINC000422507946   -0.1200
     23 C23       -12.2140   -1.6733   52.8494 C.3     1  ZINC000422507946   -0.1300
     24 C24       -10.9040   -2.4997   52.8529 C.3     1  ZINC000422507946   -0.1200
     25 C25       -11.1262   -3.5564   53.9546 C.3     1  ZINC000422507946   -0.1600
     26 C26       -16.7403   -1.0449   58.9744 C.3     1  ZINC000422507946   -0.0900
     27 S27       -16.6678   -0.3856   60.6882 S.3     1  ZINC000422507946   -0.2700
     28 H28       -14.4683    0.7114   62.3523 H       1  ZINC000422507946    0.0700
     29 H29       -13.0673   -0.1208   61.6362 H       1  ZINC000422507946    0.0700
     30 H30       -14.0774    0.9464   60.6317 H       1  ZINC000422507946    0.0700
     31 H31       -13.9418   -0.8997   59.1842 H       1  ZINC000422507946    0.0900
     32 H32       -13.7987   -2.4502   60.0464 H       1  ZINC000422507946    0.0900
     33 H33       -15.5556   -1.9817   56.9029 H       1  ZINC000422507946    0.4100
     34 H34       -11.7619   -1.7105   55.5080 H       1  ZINC000422507946    0.1100
     35 H35       -13.0271   -1.7070   56.7602 H       1  ZINC000422507946    0.1000
     36 H36       -11.9209   -4.9693   56.6114 H       1  ZINC000422507946    0.1400
     37 H37       -10.3626   -6.0399   58.1884 H       1  ZINC000422507946    0.1300
     38 H38        -8.9340   -4.6562   59.6391 H       1  ZINC000422507946    0.1400
     39 H39       -10.6194   -1.1273   57.9274 H       1  ZINC000422507946    0.1400
     40 H40       -12.9407   -4.7430   53.8885 H       1  ZINC000422507946    0.1100
     41 H41       -13.5356   -3.2736   52.1699 H       1  ZINC000422507946    0.0800
     42 H42       -14.1953   -2.2996   53.5212 H       1  ZINC000422507946    0.0600
     43 H43       -12.3631   -1.1898   51.8840 H       1  ZINC000422507946    0.0700
     44 H44       -12.2093   -0.9383   53.6543 H       1  ZINC000422507946    0.0600
     45 H45       -10.7542   -2.9815   51.8868 H       1  ZINC000422507946    0.0700
     46 H46       -10.0531   -1.8645   53.0995 H       1  ZINC000422507946    0.0700
     47 H47       -10.6892   -3.2151   54.8930 H       1  ZINC000422507946    0.0900
     48 H48       -10.6794   -4.5051   53.6575 H       1  ZINC000422507946    0.0800
     49 H49       -16.4633   -0.2784   58.2506 H       1  ZINC000422507946    0.1000
     50 H50       -17.7295   -1.4473   58.7558 H       1  ZINC000422507946    0.1100
@<TRIPOS>BOND
     1     1     2    1
     2     1    28    1
     3     1    29    1
     4     1    30    1
     5     2     3    1
     6     2    27    1
     7     2     4    1
     8     4     5    1
     9     4    31    1
    10     4    32    1
    11     5     6    1
    12     5     7    1
    13     5    26    1
    14     7     8   am
    15     7    33    1
    16     8     9    2
    17     8    10    1
    18    10    11    2
    19    10    12   am
    20    12    13    1
    21    12    21    1
    22    13    14    1
    23    13    34    1
    24    13    35    1
    25    14    20   ar
    26    14    15   ar
    27    15    16   ar
    28    15    36    1
    29    16    17   ar
    30    16    37    1
    31    17    18   ar
    32    17    38    1
    33    18    19    1
    34    18    20   ar
    35    20    39    1
    36    21    25    1
    37    21    22    1
    38    21    40    1
    39    22    23    1
    40    22    41    1
    41    22    42    1
    42    23    24    1
    43    23    43    1
    44    23    44    1
    45    24    25    1
    46    24    45    1
    47    24    46    1
    48    25    47    1
    49    25    48    1
    50    26    27    1
    51    26    49    1
    52    26    50    1
@<TRIPOS>SUBSTRUCTURE
     1 ZINC000422507946        1 TEMP              0 ****  ****    0 ROOT


##########                                Name:    ZINC000518242403
##########                DOCK_Rotatable_Bonds:                   6
##########                         Heavy_Atoms:                  27
##########                    Molecular_Weight:             370.405
##########                DOCK_Rotatable_Bonds:                   6
##########                       Formal_Charge:          -0.0200004
##########                     HBond_Acceptors:                   7
##########                        HBond_Donors:                   1
##########                         Heavy_Atoms:                  27
##########                          Grid_Score:          -31.276487
##########                     Grid_vdw_energy:          -31.688612
##########                      Grid_es_energy:            0.412124
##########           Internal_energy_repulsive:           16.506920

@<TRIPOS>MOLECULE
ZINC000518242403
 49 52 1 0 0
SMALL
USER_CHARGES


@<TRIPOS>ATOM
      1 C1        -11.8427   -3.7981   53.0569 C.3     1  ZINC000518242403   -0.1800
      2 C2        -10.7014   -2.8361   53.3929 C.3     1  ZINC000518242403    0.1000
      3 N3        -11.2530   -1.6026   53.9588 N.am    1  ZINC000518242403   -0.6200
      4 C4        -11.7574   -0.5513   53.0719 C.3     1  ZINC000518242403    0.1500
      5 C5        -10.6018    0.3588   52.6511 C.3     1  ZINC000518242403    0.0300
      6 H6        -10.9378    1.0432   51.8721 H       1  ZINC000518242403    0.0900
      7 C7        -10.1050    1.1584   53.8632 C.3     1  ZINC000518242403    0.0300
      8 O8         -9.0176    1.9872   53.4384 O.3     1  ZINC000518242403   -0.3000
      9 C9         -8.0633    1.3967   52.6684 C.ar    1  ZINC000518242403    0.0500
     10 C10        -6.8282    2.0107   52.5251 C.ar    1  ZINC000518242403   -0.1100
     11 C11        -5.8500    1.4246   51.7436 C.ar    1  ZINC000518242403   -0.1200
     12 C12        -6.0999    0.2255   51.1034 C.ar    1  ZINC000518242403   -0.1200
     13 C13        -7.3285   -0.3927   51.2433 C.ar    1  ZINC000518242403   -0.1100
     14 C14        -8.3138    0.1892   52.0266 C.ar    1  ZINC000518242403    0.0500
     15 O15        -9.5158   -0.4351   52.1607 O.3     1  ZINC000518242403   -0.3000
     16 C16       -11.2965   -1.4350   55.2954 C.2     1  ZINC000518242403    0.7100
     17 O17       -11.7558   -0.4118   55.7652 O.2     1  ZINC000518242403   -0.5700
     18 N18       -10.8310   -2.4014   56.1113 N.am    1  ZINC000518242403   -0.6800
     19 C19       -10.8763   -2.2271   57.5010 C.ar    1  ZINC000518242403    0.1700
     20 C20        -9.8725   -1.5166   58.1444 C.ar    1  ZINC000518242403   -0.1000
     21 C21        -9.9180   -1.3442   59.5179 C.ar    1  ZINC000518242403    0.0500
     22 C22       -10.9717   -1.8849   60.2509 C.ar    1  ZINC000518242403    0.0200
     23 C23       -11.9712   -2.5942   59.6048 C.ar    1  ZINC000518242403   -0.0800
     24 C24       -11.9281   -2.7604   58.2337 C.ar    1  ZINC000518242403   -0.1000
     25 C25       -13.0172   -3.5326   57.5345 C.3     1  ZINC000518242403   -0.1100
     26 O26       -10.7875   -1.5792   61.5694 O.3     1  ZINC000518242403   -0.3100
     27 C27        -9.4036   -1.1993   61.6861 C.3     1  ZINC000518242403    0.2100
     28 O28        -9.0744   -0.7002   60.3763 O.3     1  ZINC000518242403   -0.3100
     29 H29       -12.3999   -4.0318   53.9642 H       1  ZINC000518242403    0.0600
     30 H30       -12.5092   -3.3317   52.3313 H       1  ZINC000518242403    0.0600
     31 H31       -11.4323   -4.7159   52.6359 H       1  ZINC000518242403    0.0700
     32 H32       -10.0350   -3.3026   54.1186 H       1  ZINC000518242403    0.1000
     33 H33       -10.1442   -2.6024   52.4857 H       1  ZINC000518242403    0.0700
     34 H34       -12.2031   -1.0054   52.1869 H       1  ZINC000518242403    0.1100
     35 H35       -12.5103    0.0366   53.5969 H       1  ZINC000518242403    0.0900
     36 H36       -10.9125    1.7806   54.2491 H       1  ZINC000518242403    0.1300
     37 H37        -9.7640    0.4742   54.6401 H       1  ZINC000518242403    0.0800
     38 H38        -6.6305    2.9477   53.0242 H       1  ZINC000518242403    0.1300
     39 H39        -4.8888    1.9044   51.6335 H       1  ZINC000518242403    0.1300
     40 H40        -5.3342   -0.2292   50.4925 H       1  ZINC000518242403    0.1300
     41 H41        -7.5213   -1.3296   50.7419 H       1  ZINC000518242403    0.1300
     42 H42       -10.4646   -3.2177   55.7365 H       1  ZINC000518242403    0.4100
     43 H43        -9.0562   -1.0984   57.5742 H       1  ZINC000518242403    0.1500
     44 H44       -12.7883   -3.0134   60.1732 H       1  ZINC000518242403    0.1400
     45 H45       -13.8165   -2.8510   57.2438 H       1  ZINC000518242403    0.0800
     46 H46       -12.6084   -4.0133   56.6456 H       1  ZINC000518242403    0.0700
     47 H47       -13.4141   -4.2919   58.2082 H       1  ZINC000518242403    0.0800
     48 H48        -9.2830   -0.4171   62.4355 H       1  ZINC000518242403    0.1300
     49 H49        -8.7883   -2.0648   61.9320 H       1  ZINC000518242403    0.0900
@<TRIPOS>BOND
     1     1     2    1
     2     1    29    1
     3     1    30    1
     4     1    31    1
     5     2     3    1
     6     2    32    1
     7     2    33    1
     8     3     4    1
     9     3    16   am
    10     4     5    1
    11     4    34    1
    12     4    35    1
    13     5     6    1
    14     5    15    1
    15     5     7    1
    16     7     8    1
    17     7    36    1
    18     7    37    1
    19     8     9    1
    20     9    14   ar
    21     9    10   ar
    22    10    11   ar
    23    10    38    1
    24    11    12   ar
    25    11    39    1
    26    12    13   ar
    27    12    40    1
    28    13    14   ar
    29    13    41    1
    30    14    15    1
    31    16    17    2
    32    16    18   am
    33    18    19    1
    34    18    42    1
    35    19    24   ar
    36    19    20   ar
    37    20    21   ar
    38    20    43    1
    39    21    28    1
    40    21    22   ar
    41    22    23   ar
    42    22    26    1
    43    23    24   ar
    44    23    44    1
    45    24    25    1
    46    25    45    1
    47    25    46    1
    48    25    47    1
    49    26    27    1
    50    27    28    1
    51    27    48    1
    52    27    49    1
@<TRIPOS>SUBSTRUCTURE
     1 ZINC000518242403        1 TEMP              0 ****  ****    0 ROOT


##########                                Name:    ZINC000271662144
##########                DOCK_Rotatable_Bonds:                   8
##########                         Heavy_Atoms:                  26
##########                    Molecular_Weight:             390.402
##########                DOCK_Rotatable_Bonds:                   8
##########                       Formal_Charge:          0.00999944
##########                     HBond_Acceptors:                   9
##########                        HBond_Donors:                   3
##########                         Heavy_Atoms:                  26
##########                          Grid_Score:          -31.254513
##########                     Grid_vdw_energy:          -29.465385
##########                      Grid_es_energy:           -1.789126
##########           Internal_energy_repulsive:           25.951899

@<TRIPOS>MOLECULE
ZINC000271662144
 44 45 1 0 0
SMALL
USER_CHARGES


@<TRIPOS>ATOM
      1 C1        -14.9340   -3.5560   57.6865 C.3     1  ZINC000271662144   -0.1400
      2 C2        -13.7402   -2.8798   57.0094 C.3     1  ZINC000271662144    0.1200
      3 H3        -13.8319   -1.7981   57.1073 H       1  ZINC000271662144    0.0600
      4 N4        -13.7146   -3.2423   55.5861 N.3     1  ZINC000271662144   -0.6700
      5 C5        -13.4030   -2.0745   54.7510 C.3     1  ZINC000271662144    0.1300
      6 H6        -13.6132   -1.1622   55.3093 H       1  ZINC000271662144    0.1100
      7 C7        -11.9235   -2.1054   54.3627 C.3     1  ZINC000271662144   -0.2000
      8 C8        -11.6885   -3.2161   53.3369 C.3     1  ZINC000271662144    0.4600
      9 F9        -12.4491   -4.3383   53.6823 F       1  ZINC000271662144   -0.1800
     10 F10       -12.0694   -2.7672   52.0679 F       1  ZINC000271662144   -0.1800
     11 F11       -10.3321   -3.5584   53.3229 F       1  ZINC000271662144   -0.1700
     12 C12       -14.2502   -2.1075   53.5051 C.ar    1  ZINC000271662144   -0.0900
     13 C13       -14.1984   -1.0581   52.6066 C.ar    1  ZINC000271662144   -0.0600
     14 C14       -14.9748   -1.0873   51.4638 C.ar    1  ZINC000271662144   -0.1600
     15 C15       -15.8046   -2.1684   51.2186 C.ar    1  ZINC000271662144    0.1000
     16 F16       -16.5638   -2.1981   50.1015 F       1  ZINC000271662144   -0.1400
     17 C17       -15.8553   -3.2190   52.1190 C.ar    1  ZINC000271662144   -0.1500
     18 C18       -15.0743   -3.1898   53.2588 C.ar    1  ZINC000271662144   -0.0700
     19 C19       -12.4640   -3.3375   57.6673 C.ar    1  ZINC000271662144   -0.1100
     20 C20       -11.9252   -4.5695   57.3480 C.ar    1  ZINC000271662144   -0.0400
     21 C21       -10.7543   -4.9893   57.9515 C.ar    1  ZINC000271662144   -0.1400
     22 C22       -10.1225   -4.1768   58.8740 C.ar    1  ZINC000271662144   -0.0200
     23 C23       -10.6609   -2.9440   59.1929 C.ar    1  ZINC000271662144   -0.6800
     24 S24        -9.8558   -1.9085   60.3693 S.o2    1  ZINC000271662144    2.7000
     25 N25        -8.7498   -2.8449   61.1707 N.am    1  ZINC000271662144   -1.2500
     26 O26        -9.1099   -0.9572   59.6223 O.2     1  ZINC000271662144   -0.9600
     27 O27       -10.8420   -1.5453   61.3256 O.2     1  ZINC000271662144   -0.9600
     28 C28       -11.8291   -2.5225   58.5863 C.ar    1  ZINC000271662144   -0.0100
     29 H29       -15.8571   -3.2250   57.2106 H       1  ZINC000271662144    0.0600
     30 H30       -14.8424   -4.6378   57.5886 H       1  ZINC000271662144    0.0700
     31 H31       -14.9530   -3.2871   58.7427 H       1  ZINC000271662144    0.0600
     32 H32       -13.0623   -3.9929   55.4158 H       1  ZINC000271662144    0.3500
     33 H33       -11.6412   -1.1456   53.9299 H       1  ZINC000271662144    0.1100
     34 H34       -11.3190   -2.2959   55.2494 H       1  ZINC000271662144    0.1200
     35 H35       -13.5511   -0.2151   52.7980 H       1  ZINC000271662144    0.1300
     36 H36       -14.9348   -0.2671   50.7624 H       1  ZINC000271662144    0.1400
     37 H37       -16.5024   -4.0625   51.9290 H       1  ZINC000271662144    0.1400
     38 H38       -15.1135   -4.0094   53.9610 H       1  ZINC000271662144    0.1300
     39 H39       -12.4189   -5.2044   56.6272 H       1  ZINC000271662144    0.1400
     40 H40       -10.3336   -5.9524   57.7025 H       1  ZINC000271662144    0.1400
     41 H41        -9.2082   -4.5052   59.3461 H       1  ZINC000271662144    0.1400
     42 H42        -9.0441   -3.6224   61.6705 H       1  ZINC000271662144    0.4200
     43 H43        -7.8077   -2.6161   61.1402 H       1  ZINC000271662144    0.4200
     44 H44       -12.2499   -1.5595   58.8352 H       1  ZINC000271662144    0.1400
@<TRIPOS>BOND
     1     1     2    1
     2     1    29    1
     3     1    30    1
     4     1    31    1
     5     2     3    1
     6     2     4    1
     7     2    19    1
     8     4     5    1
     9     4    32    1
    10     5     6    1
    11     5     7    1
    12     5    12    1
    13     7     8    1
    14     7    33    1
    15     7    34    1
    16     8     9    1
    17     8    10    1
    18     8    11    1
    19    12    18   ar
    20    12    13   ar
    21    13    14   ar
    22    13    35    1
    23    14    15   ar
    24    14    36    1
    25    15    16    1
    26    15    17   ar
    27    17    18   ar
    28    17    37    1
    29    18    38    1
    30    19    28   ar
    31    19    20   ar
    32    20    21   ar
    33    20    39    1
    34    21    22   ar
    35    21    40    1
    36    22    23   ar
    37    22    41    1
    38    23    24    1
    39    23    28   ar
    40    24    25   am
    41    24    26    2
    42    24    27    2
    43    25    42    1
    44    25    43    1
    45    28    44    1
@<TRIPOS>SUBSTRUCTURE
     1 ZINC000271662144        1 TEMP              0 ****  ****    0 ROOT


##########                                Name:    ZINC000800038938
##########                DOCK_Rotatable_Bonds:                   6
##########                         Heavy_Atoms:                  25
##########                    Molecular_Weight:             386.274
##########                DOCK_Rotatable_Bonds:                   6
##########                       Formal_Charge:           0.0200003
##########                     HBond_Acceptors:                   7
##########                        HBond_Donors:                   0
##########                         Heavy_Atoms:                  25
##########                          Grid_Score:          -31.252907
##########                     Grid_vdw_energy:          -30.510153
##########                      Grid_es_energy:           -0.742754
##########           Internal_energy_repulsive:           16.807835

@<TRIPOS>MOLECULE
ZINC000800038938
 46 48 1 0 0
SMALL
USER_CHARGES


@<TRIPOS>ATOM
      1 C1        -14.3417    1.1003   63.8461 C.3     1  ZINC000800038938    0.0300
      2 O2        -13.6337    0.9762   62.6110 O.3     1  ZINC000800038938   -0.3800
      3 C3        -14.2165    0.0440   61.6981 C.3     1  ZINC000800038938    0.0900
      4 H4        -15.2281    0.3574   61.4401 H       1  ZINC000800038938    0.0700
      5 C5        -14.2437   -1.3645   62.3265 C.3     1  ZINC000800038938   -0.1400
      6 C6        -13.9439   -2.3152   61.1411 C.3     1  ZINC000800038938   -0.1400
      7 C7        -12.8885   -1.5253   60.3279 C.3     1  ZINC000800038938    0.0900
      8 H8        -11.8996   -1.6420   60.7711 H       1  ZINC000800038938    0.0900
      9 O9        -12.8792   -1.9657   58.9443 O.3     1  ZINC000800038938   -0.3500
     10 C10       -11.9649   -1.4095   58.1339 C.2     1  ZINC000800038938    0.4500
     11 O11       -12.2888   -0.5300   57.3715 O.2     1  ZINC000800038938   -0.4800
     12 C12       -10.5346   -1.8823   58.1750 C.3     1  ZINC000800038938    0.1500
     13 H13       -10.0731   -1.7524   57.1961 H       1  ZINC000800038938    0.1200
     14 C14        -9.7482   -1.0839   59.2361 C.3     1  ZINC000800038938   -0.1200
     15 C15        -8.8227   -2.1591   59.8646 C.3     1  ZINC000800038938   -0.1300
     16 C16        -9.7342   -3.4113   59.8323 C.3     1  ZINC000800038938    0.0900
     17 N17       -10.4873   -3.2987   58.5661 N.am    1  ZINC000800038938   -0.6000
     18 C18       -11.0399   -4.3235   57.8872 C.2     1  ZINC000800038938    0.5800
     19 O19       -10.9383   -5.4583   58.3108 O.2     1  ZINC000800038938   -0.4900
     20 C20       -11.7692   -4.0674   56.6277 C.ar    1  ZINC000800038938   -0.1100
     21 C21       -11.0743   -3.6758   55.4823 C.ar    1  ZINC000800038938   -0.0700
     22 C22       -11.7619   -3.4382   54.3090 C.ar    1  ZINC000800038938   -0.0400
     23 Cl23      -10.8994   -2.9515   52.8832 Cl      1  ZINC000800038938   -0.0500
     24 C24       -13.1381   -3.5874   54.2667 C.ar    1  ZINC000800038938   -0.0700
     25 C25       -13.8331   -3.9748   55.3979 C.ar    1  ZINC000800038938   -0.1000
     26 C26       -13.1571   -4.2218   56.5766 C.ar    1  ZINC000800038938    0.0100
     27 Cl27      -14.0312   -4.7079   57.9956 Cl      1  ZINC000800038938   -0.0300
     28 C28       -13.3556   -0.0573   60.4267 C.3     1  ZINC000800038938   -0.1200
     29 H29       -13.8362    1.8260   64.4833 H       1  ZINC000800038938    0.0900
     30 H30       -15.3596    1.4365   63.6492 H       1  ZINC000800038938    0.0400
     31 H31       -14.3691    0.1330   64.3479 H       1  ZINC000800038938    0.0400
     32 H32       -13.4736   -1.4553   63.0926 H       1  ZINC000800038938    0.0800
     33 H33       -15.2272   -1.5762   62.7460 H       1  ZINC000800038938    0.0800
     34 H34       -13.5300   -3.2585   61.4976 H       1  ZINC000800038938    0.0800
     35 H35       -14.8411   -2.4861   60.5464 H       1  ZINC000800038938    0.0800
     36 H36        -9.1599   -0.2950   58.7674 H       1  ZINC000800038938    0.1000
     37 H37       -10.4228   -0.6700   59.9855 H       1  ZINC000800038938    0.0900
     38 H38        -7.9302   -2.3097   59.2573 H       1  ZINC000800038938    0.0900
     39 H39        -8.5569   -1.8957   60.8883 H       1  ZINC000800038938    0.1000
     40 H40        -9.1314   -4.3193   59.8342 H       1  ZINC000800038938    0.0900
     41 H41       -10.4164   -3.4060   60.6825 H       1  ZINC000800038938    0.0800
     42 H42       -10.0012   -3.5586   55.5139 H       1  ZINC000800038938    0.1500
     43 H43       -13.6711   -3.4003   53.3462 H       1  ZINC000800038938    0.1500
     44 H44       -14.9064   -4.0890   55.3581 H       1  ZINC000800038938    0.1500
     45 H45       -13.9488    0.2056   59.5509 H       1  ZINC000800038938    0.0900
     46 H46       -12.4931    0.6044   60.5063 H       1  ZINC000800038938    0.0900
@<TRIPOS>BOND
     1     1     2    1
     2     1    29    1
     3     1    30    1
     4     1    31    1
     5     2     3    1
     6     3     4    1
     7     3    28    1
     8     3     5    1
     9     5     6    1
    10     5    32    1
    11     5    33    1
    12     6     7    1
    13     6    34    1
    14     6    35    1
    15     7     8    1
    16     7     9    1
    17     7    28    1
    18     9    10    1
    19    10    11    2
    20    10    12    1
    21    12    13    1
    22    12    17    1
    23    12    14    1
    24    14    15    1
    25    14    36    1
    26    14    37    1
    27    15    16    1
    28    15    38    1
    29    15    39    1
    30    16    17    1
    31    16    40    1
    32    16    41    1
    33    17    18   am
    34    18    19    2
    35    18    20    1
    36    20    26   ar
    37    20    21   ar
    38    21    22   ar
    39    21    42    1
    40    22    23    1
    41    22    24   ar
    42    24    25   ar
    43    24    43    1
    44    25    26   ar
    45    25    44    1
    46    26    27    1
    47    28    45    1
    48    28    46    1
@<TRIPOS>SUBSTRUCTURE
     1 ZINC000800038938        1 TEMP              0 ****  ****    0 ROOT


##########                                Name:    ZINC000650955167
##########                DOCK_Rotatable_Bonds:                   9
##########                         Heavy_Atoms:                  26
##########                    Molecular_Weight:             361.484
##########                DOCK_Rotatable_Bonds:                   9
##########                       Formal_Charge:        -7.07805e-07
##########                     HBond_Acceptors:                   6
##########                        HBond_Donors:                   2
##########                         Heavy_Atoms:                  26
##########                          Grid_Score:          -31.251175
##########                     Grid_vdw_energy:          -30.644943
##########                      Grid_es_energy:           -0.606231
##########           Internal_energy_repulsive:           17.854990

@<TRIPOS>MOLECULE
ZINC000650955167
 57 59 1 0 0
SMALL
USER_CHARGES


@<TRIPOS>ATOM
      1 C1        -16.0367   -1.7971   58.5470 C.3     1  ZINC000650955167    0.0200
      2 O2        -14.6388   -2.0884   58.4896 O.3     1  ZINC000650955167   -0.3200
      3 C3        -14.2594   -3.1429   57.7207 C.ar    1  ZINC000650955167    0.1300
      4 C4        -14.6331   -4.4309   58.0750 C.ar    1  ZINC000650955167   -0.2000
      5 C5        -14.2465   -5.5012   57.2913 C.ar    1  ZINC000650955167   -0.0800
      6 C6        -13.4877   -5.2893   56.1554 C.ar    1  ZINC000650955167   -0.1500
      7 C7        -13.1135   -4.0063   55.8004 C.ar    1  ZINC000650955167   -0.0800
      8 C8        -13.5026   -2.9323   56.5770 C.ar    1  ZINC000650955167   -0.1100
      9 C9        -13.0949   -1.5343   56.1894 C.3     1  ZINC000650955167   -0.0800
     10 C10       -11.6195   -1.3196   56.5326 C.3     1  ZINC000650955167    0.1800
     11 H11       -11.0642   -2.2375   56.3397 H       1  ZINC000650955167    0.0900
     12 N12       -11.4945   -0.9614   57.9477 N.am    1  ZINC000650955167   -0.7300
     13 C13       -10.5093   -1.4986   58.6942 C.2     1  ZINC000650955167    0.7400
     14 O14        -9.7234   -2.2792   58.1929 O.2     1  ZINC000650955167   -0.5800
     15 N15       -10.3953   -1.1704   59.9964 N.am    1  ZINC000650955167   -0.6700
     16 C16       -11.1203   -0.3033   60.9374 C.3     1  ZINC000650955167    0.1100
     17 C17        -9.8120   -0.1575   61.7267 C.3     1  ZINC000650955167    0.0300
     18 N18        -9.9821   -0.1878   63.1856 N.3     1  ZINC000650955167   -0.5100
     19 C19       -10.4666    1.1149   63.6897 C.3     1  ZINC000650955167    0.0400
     20 C20        -9.8102    1.2683   65.0844 C.3     1  ZINC000650955167   -0.1600
     21 C21        -8.4114    0.6425   64.8430 C.3     1  ZINC000650955167    0.0800
     22 H22        -7.7366    1.3697   64.3915 H       1  ZINC000650955167    0.0600
     23 O23        -7.8655    0.1391   66.0639 O.3     1  ZINC000650955167   -0.5600
     24 C24        -8.7105   -0.5084   63.8594 C.3     1  ZINC000650955167    0.0500
     25 C25        -9.4950   -1.5268   61.1034 C.3     1  ZINC000650955167    0.1400
     26 C26       -11.0541   -0.1903   55.6689 C.3     1  ZINC000650955167   -0.1100
     27 C27       -10.8152   -0.7057   54.2481 C.3     1  ZINC000650955167   -0.1400
     28 C28       -12.0508    0.9698   55.6298 C.3     1  ZINC000650955167   -0.1500
     29 H29       -16.2019   -0.9348   59.1931 H       1  ZINC000650955167    0.1000
     30 H30       -16.4032   -1.5756   57.5446 H       1  ZINC000650955167    0.0600
     31 H31       -16.5712   -2.6587   58.9472 H       1  ZINC000650955167    0.0600
     32 H32       -15.2253   -4.5971   58.9626 H       1  ZINC000650955167    0.1300
     33 H33       -14.5372   -6.5043   57.5667 H       1  ZINC000650955167    0.1200
     34 H34       -13.1862   -6.1273   55.5444 H       1  ZINC000650955167    0.1200
     35 H35       -12.5204   -3.8433   54.9127 H       1  ZINC000650955167    0.1300
     36 H36       -13.2425   -1.3967   55.1182 H       1  ZINC000650955167    0.0900
     37 H37       -13.7036   -0.8137   56.7355 H       1  ZINC000650955167    0.0800
     38 H38       -12.1207   -0.3377   58.3472 H       1  ZINC000650955167    0.4000
     39 H39       -11.4643    0.6297   60.4910 H       1  ZINC000650955167    0.0700
     40 H40       -11.9046   -0.8216   61.4890 H       1  ZINC000650955167    0.0900
     41 H41        -9.1718    0.6555   61.3845 H       1  ZINC000650955167    0.0900
     42 H42       -10.1461    1.9204   63.0289 H       1  ZINC000650955167    0.0500
     43 H43       -11.5528    1.1066   63.7802 H       1  ZINC000650955167    0.0900
     44 H44        -9.7253    2.3188   65.3626 H       1  ZINC000650955167    0.0800
     45 H45       -10.3630    0.7094   65.8395 H       1  ZINC000650955167    0.0900
     46 H46        -8.4710   -0.4276   66.5613 H       1  ZINC000650955167    0.3800
     47 H47        -8.8063   -1.4471   64.4050 H       1  ZINC000650955167    0.0900
     48 H48        -7.9099   -0.5847   63.1235 H       1  ZINC000650955167    0.0700
     49 H49        -9.8475   -2.3677   61.7006 H       1  ZINC000650955167    0.0900
     50 H50        -8.4545   -1.6338   60.7968 H       1  ZINC000650955167    0.0800
     51 H51       -10.1114    0.1548   56.0935 H       1  ZINC000650955167    0.0700
     52 H52       -11.7579   -1.0507   53.8235 H       1  ZINC000650955167    0.0600
     53 H53       -10.4125    0.0989   53.6328 H       1  ZINC000650955167    0.0400
     54 H54       -10.1051   -1.5321   54.2761 H       1  ZINC000650955167    0.0500
     55 H55       -12.2211    1.3369   56.6418 H       1  ZINC000650955167    0.0600
     56 H56       -11.6481    1.7742   55.0144 H       1  ZINC000650955167    0.0600
     57 H57       -12.9936    0.6246   55.2051 H       1  ZINC000650955167    0.0600
@<TRIPOS>BOND
     1     1     2    1
     2     1    29    1
     3     1    30    1
     4     1    31    1
     5     2     3    1
     6     3     8   ar
     7     3     4   ar
     8     4     5   ar
     9     4    32    1
    10     5     6   ar
    11     5    33    1
    12     6     7   ar
    13     6    34    1
    14     7     8   ar
    15     7    35    1
    16     8     9    1
    17     9    10    1
    18     9    36    1
    19     9    37    1
    20    10    11    1
    21    10    12    1
    22    10    26    1
    23    12    13   am
    24    12    38    1
    25    13    14    2
    26    13    15   am
    27    15    25    1
    28    15    16    1
    29    16    17    1
    30    16    39    1
    31    16    40    1
    32    17    18    1
    33    17    25    1
    34    17    41    1
    35    18    24    1
    36    18    19    1
    37    19    20    1
    38    19    42    1
    39    19    43    1
    40    20    21    1
    41    20    44    1
    42    20    45    1
    43    21    22    1
    44    21    23    1
    45    21    24    1
    46    23    46    1
    47    24    47    1
    48    24    48    1
    49    25    49    1
    50    25    50    1
    51    26    27    1
    52    26    28    1
    53    26    51    1
    54    27    52    1
    55    27    53    1
    56    27    54    1
    57    28    55    1
    58    28    56    1
    59    28    57    1
@<TRIPOS>SUBSTRUCTURE
     1 ZINC000650955167        1 TEMP              0 ****  ****    0 ROOT


##########                                Name:    ZINC001079355651
##########                DOCK_Rotatable_Bonds:                   5
##########                         Heavy_Atoms:                  25
##########                    Molecular_Weight:             353.851
##########                DOCK_Rotatable_Bonds:                   5
##########                       Formal_Charge:           0.0199997
##########                     HBond_Acceptors:                   5
##########                        HBond_Donors:                   1
##########                         Heavy_Atoms:                  25
##########                          Grid_Score:          -31.204622
##########                     Grid_vdw_energy:          -31.016193
##########                      Grid_es_energy:           -0.188430
##########           Internal_energy_repulsive:            4.592322

@<TRIPOS>MOLECULE
ZINC001079355651
 45 47 1 0 0
SMALL
USER_CHARGES


@<TRIPOS>ATOM
      1 C1         -7.2378   -0.2668   51.2522 C.3     1  ZINC001079355651   -0.1500
      2 C2         -6.7235    1.0350   50.6341 C.3     1  ZINC001079355651   -0.1000
      3 H3         -7.2373    1.2359   49.6941 H       1  ZINC001079355651    0.0900
      4 C4         -5.1989    0.9542   50.4053 C.3     1  ZINC001079355651    0.0300
      5 N5         -4.7009    2.3189   50.7158 N.3     1  ZINC001079355651   -0.5100
      6 C6         -3.2659    2.2972   51.0287 C.3     1  ZINC001079355651    0.1600
      7 C7         -2.5020    1.9924   49.8078 C.1     1  ZINC001079355651   -0.1400
      8 C8         -1.8929    1.7493   48.8342 C.1     1  ZINC001079355651   -0.1300
      9 C9         -1.1498    1.4528   47.6465 C.ar    1  ZINC001079355651    0.0300
     10 C10         0.1910    1.8260   47.5477 C.ar    1  ZINC001079355651   -0.0900
     11 C11         0.9021    1.5377   46.4006 C.ar    1  ZINC001079355651   -0.1000
     12 C12         0.2889    0.8801   45.3498 C.ar    1  ZINC001079355651   -0.1000
     13 C13        -1.0417    0.5073   45.4408 C.ar    1  ZINC001079355651   -0.0300
     14 Cl14       -1.8030   -0.3172   44.1163 Cl      1  ZINC001079355651   -0.0600
     15 C15        -1.7621    0.7846   46.5855 C.ar    1  ZINC001079355651   -0.0900
     16 C16        -5.4973    2.7379   51.8977 C.3     1  ZINC001079355651    0.0200
     17 C17        -6.9223    2.2089   51.6149 C.3     1  ZINC001079355651    0.1500
     18 H18        -7.3856    1.8575   52.5368 H       1  ZINC001079355651    0.1000
     19 N19        -7.7420    3.2572   51.0020 N.am    1  ZINC001079355651   -0.7100
     20 C20        -9.0835    3.2230   51.1270 C.2     1  ZINC001079355651    0.5600
     21 O21        -9.6131    2.3235   51.7491 O.2     1  ZINC001079355651   -0.5300
     22 C22        -9.9125    4.2822   50.5058 C.ar    1  ZINC001079355651   -0.0900
     23 C23        -9.3239    5.3221   49.7800 C.ar    1  ZINC001079355651   -0.1400
     24 C24       -10.1348    6.2889   49.2175 C.ar    1  ZINC001079355651    0.1000
     25 N25       -11.4445    6.2394   49.3579 N.ar    1  ZINC001079355651   -0.4700
     26 C26       -12.0395    5.2767   50.0339 C.ar    1  ZINC001079355651    0.1000
     27 C27       -11.3055    4.2662   50.6242 C.ar    1  ZINC001079355651   -0.1200
     28 H28        -8.3052   -0.1763   51.4540 H       1  ZINC001079355651    0.0600
     29 H29        -7.0677   -1.0902   50.5587 H       1  ZINC001079355651    0.0700
     30 H30        -6.7070   -0.4611   52.1841 H       1  ZINC001079355651    0.0600
     31 H31        -4.7515    0.2237   51.0795 H       1  ZINC001079355651    0.0600
     32 H32        -4.9833    0.6975   49.3681 H       1  ZINC001079355651    0.0900
     33 H33        -2.9630    3.2712   51.4131 H       1  ZINC001079355651    0.0700
     34 H34        -3.0694    1.5328   51.7805 H       1  ZINC001079355651    0.1100
     35 H35         0.6713    2.3399   48.3671 H       1  ZINC001079355651    0.1300
     36 H36         1.9399    1.8266   46.3233 H       1  ZINC001079355651    0.1400
     37 H37         0.8499    0.6570   44.4543 H       1  ZINC001079355651    0.1400
     38 H38        -2.7997    0.4934   46.6559 H       1  ZINC001079355651    0.1400
     39 H39        -5.0966    2.2867   52.8055 H       1  ZINC001079355651    0.0600
     40 H40        -5.5063    3.8245   51.9843 H       1  ZINC001079355651    0.0900
     41 H41        -7.3192    3.9759   50.5065 H       1  ZINC001079355651    0.4000
     42 H42        -8.2515    5.3692   49.6611 H       1  ZINC001079355651    0.1400
     43 H43        -9.6896    7.0964   48.6553 H       1  ZINC001079355651    0.1600
     44 H44       -13.1158    5.2759   50.1238 H       1  ZINC001079355651    0.1700
     45 H45       -11.7998    3.4807   51.1766 H       1  ZINC001079355651    0.1500
@<TRIPOS>BOND
     1     1     2    1
     2     1    28    1
     3     1    29    1
     4     1    30    1
     5     2     3    1
     6     2    17    1
     7     2     4    1
     8     4     5    1
     9     4    31    1
    10     4    32    1
    11     5     6    1
    12     5    16    1
    13     6     7    1
    14     6    33    1
    15     6    34    1
    16     7     8    3
    17     8     9    1
    18     9    15   ar
    19     9    10   ar
    20    10    11   ar
    21    10    35    1
    22    11    12   ar
    23    11    36    1
    24    12    13   ar
    25    12    37    1
    26    13    14    1
    27    13    15   ar
    28    15    38    1
    29    16    17    1
    30    16    39    1
    31    16    40    1
    32    17    18    1
    33    17    19    1
    34    19    20   am
    35    19    41    1
    36    20    21    2
    37    20    22    1
    38    22    27   ar
    39    22    23   ar
    40    23    24   ar
    41    23    42    1
    42    24    25   ar
    43    24    43    1
    44    25    26   ar
    45    26    27   ar
    46    26    44    1
    47    27    45    1
@<TRIPOS>SUBSTRUCTURE
     1 ZINC001079355651        1 TEMP              0 ****  ****    0 ROOT


##########                                Name:    ZINC001002468398
##########                DOCK_Rotatable_Bonds:                   7
##########                         Heavy_Atoms:                  24
##########                    Molecular_Weight:             341.358
##########                DOCK_Rotatable_Bonds:                   7
##########                       Formal_Charge:           0.0100001
##########                     HBond_Acceptors:                   8
##########                        HBond_Donors:                   0
##########                         Heavy_Atoms:                  24
##########                          Grid_Score:          -31.186750
##########                     Grid_vdw_energy:          -31.139328
##########                      Grid_es_energy:           -0.047422
##########           Internal_energy_repulsive:           19.841881

@<TRIPOS>MOLECULE
ZINC001002468398
 45 47 1 0 0
SMALL
USER_CHARGES


@<TRIPOS>ATOM
      1 C1         -8.2122    3.1292   50.8204 C.3     1  ZINC001002468398   -0.1400
      2 C2         -8.3109    2.2639   52.0784 C.3     1  ZINC001002468398   -0.0500
      3 C3         -7.9934    0.8326   51.7297 C.2     1  ZINC001002468398    0.0500
      4 C4         -8.5116   -0.2789   52.3197 C.2     1  ZINC001002468398   -0.0800
      5 C5         -9.4904   -0.3100   53.4215 C.2     1  ZINC001002468398    0.6000
      6 O6         -9.3905    0.4739   54.3459 O.2     1  ZINC001002468398   -0.5300
      7 N7        -10.4961   -1.2072   53.4045 N.am    1  ZINC001002468398   -0.6000
      8 C8        -10.6163   -2.1515   52.2909 C.3     1  ZINC001002468398    0.0900
      9 C9        -11.4688   -1.2381   54.4994 C.3     1  ZINC001002468398    0.1000
     10 C10       -11.2991   -2.5333   55.2959 C.3     1  ZINC001002468398    0.1300
     11 H11       -10.3203   -2.9679   55.0926 H       1  ZINC001002468398    0.0800
     12 C12       -12.4083   -3.5351   54.9115 C.3     1  ZINC001002468398   -0.1300
     13 C13       -12.7582   -4.2033   56.2674 C.3     1  ZINC001002468398   -0.1300
     14 C14       -12.5912   -3.0180   57.2506 C.3     1  ZINC001002468398    0.1000
     15 N15       -11.4346   -2.2577   56.7337 N.am    1  ZINC001002468398   -0.6100
     16 C16       -10.6399   -1.4466   57.4597 C.2     1  ZINC001002468398    0.5600
     17 O17        -9.7148   -0.8697   56.9283 O.2     1  ZINC001002468398   -0.5100
     18 C18       -10.9010   -1.2563   58.9317 C.3     1  ZINC001002468398   -0.2000
     19 H19       -11.9039   -0.9175   59.1913 H       1  ZINC001002468398    0.1500
     20 C20        -9.7412   -0.7582   59.7963 C.3     1  ZINC001002468398   -0.1500
     21 C21       -10.2053   -2.2130   59.9021 C.3     1  ZINC001002468398    0.2300
     22 F22       -10.9049   -2.5857   61.0548 F       1  ZINC001002468398   -0.1500
     23 F23        -9.3751   -3.1973   59.3550 F       1  ZINC001002468398   -0.1400
     24 N24        -7.9565   -1.3562   51.7007 N.2     1  ZINC001002468398   -0.4600
     25 C25        -7.1429   -0.9293   50.7821 C.2     1  ZINC001002468398    0.1700
     26 O26        -7.1498    0.4112   50.7740 O.3     1  ZINC001002468398   -0.2000
     27 H27        -7.2015    3.0693   50.4166 H       1  ZINC001002468398    0.0600
     28 H28        -8.9228    2.7704   50.0759 H       1  ZINC001002468398    0.0600
     29 H29        -8.4418    4.1645   51.0727 H       1  ZINC001002468398    0.0700
     30 H30        -7.6003    2.6227   52.8229 H       1  ZINC001002468398    0.1200
     31 H31        -9.3216    2.3237   52.4822 H       1  ZINC001002468398    0.0900
     32 H32        -9.7420   -2.8021   52.2701 H       1  ZINC001002468398    0.0700
     33 H33       -11.5149   -2.7546   52.4214 H       1  ZINC001002468398    0.0700
     34 H34       -10.6816   -1.6006   51.3527 H       1  ZINC001002468398    0.0700
     35 H35       -11.3041   -0.3836   55.1559 H       1  ZINC001002468398    0.0900
     36 H36       -12.4781   -1.1928   54.0902 H       1  ZINC001002468398    0.0900
     37 H37       -13.2743   -3.0138   54.5037 H       1  ZINC001002468398    0.1000
     38 H38       -12.0325   -4.2735   54.2032 H       1  ZINC001002468398    0.0800
     39 H39       -13.7845   -4.5703   56.2687 H       1  ZINC001002468398    0.0900
     40 H40       -12.0578   -5.0055   56.4999 H       1  ZINC001002468398    0.0800
     41 H41       -13.4863   -2.3959   57.2505 H       1  ZINC001002468398    0.0800
     42 H42       -12.3834   -3.3851   58.2557 H       1  ZINC001002468398    0.0800
     43 H43        -8.7892   -0.5681   59.3004 H       1  ZINC001002468398    0.1300
     44 H44        -9.9811   -0.0920   60.6250 H       1  ZINC001002468398    0.1400
     45 H45        -6.5569   -1.5556   50.1257 H       1  ZINC001002468398    0.2600
@<TRIPOS>BOND
     1     1     2    1
     2     1    27    1
     3     1    28    1
     4     1    29    1
     5     2     3    1
     6     2    30    1
     7     2    31    1
     8     3    26    1
     9     3     4    2
    10     4     5    1
    11     4    24    1
    12     5     6    2
    13     5     7   am
    14     7     8    1
    15     7     9    1
    16     8    32    1
    17     8    33    1
    18     8    34    1
    19     9    10    1
    20     9    35    1
    21     9    36    1
    22    10    11    1
    23    10    15    1
    24    10    12    1
    25    12    13    1
    26    12    37    1
    27    12    38    1
    28    13    14    1
    29    13    39    1
    30    13    40    1
    31    14    15    1
    32    14    41    1
    33    14    42    1
    34    15    16   am
    35    16    17    2
    36    16    18    1
    37    18    19    1
    38    18    21    1
    39    18    20    1
    40    20    21    1
    41    20    43    1
    42    20    44    1
    43    21    22    1
    44    21    23    1
    45    24    25    2
    46    25    26    1
    47    25    45    1
@<TRIPOS>SUBSTRUCTURE
     1 ZINC001002468398        1 TEMP              0 ****  ****    0 ROOT


##########                                Name:    ZINC000477589488
##########                DOCK_Rotatable_Bonds:                   6
##########                         Heavy_Atoms:                  32
##########                    Molecular_Weight:             423.517
##########                DOCK_Rotatable_Bonds:                   6
##########                       Formal_Charge:        -8.19564e-07
##########                     HBond_Acceptors:                   6
##########                        HBond_Donors:                   1
##########                         Heavy_Atoms:                  32
##########                          Grid_Score:          -31.183443
##########                     Grid_vdw_energy:          -30.491350
##########                      Grid_es_energy:           -0.692092
##########           Internal_energy_repulsive:           20.141306

@<TRIPOS>MOLECULE
ZINC000477589488
 57 61 1 0 0
SMALL
USER_CHARGES


@<TRIPOS>ATOM
      1 O1        -12.1697    1.2382   56.9567 O.2     1  ZINC000477589488   -0.5800
      2 C2        -10.9658    1.2249   57.1268 C.2     1  ZINC000477589488    0.7100
      3 N3        -10.4409    0.5640   58.1775 N.am    1  ZINC000477589488   -0.7400
      4 C4        -11.3213   -0.1334   59.1182 C.3     1  ZINC000477589488    0.2500
      5 H5        -12.2364    0.4428   59.2547 H       1  ZINC000477589488    0.1100
      6 C6        -10.6207   -0.2850   60.4438 C.ar    1  ZINC000477589488   -0.0900
      7 C7        -10.9760    0.5209   61.5093 C.ar    1  ZINC000477589488   -0.1000
      8 C8        -10.3334    0.3819   62.7254 C.ar    1  ZINC000477589488   -0.1200
      9 C9         -9.3359   -0.5633   62.8760 C.ar    1  ZINC000477589488   -0.1200
     10 C10        -8.9814   -1.3698   61.8107 C.ar    1  ZINC000477589488   -0.1200
     11 C11        -9.6269   -1.2337   60.5959 C.ar    1  ZINC000477589488   -0.1000
     12 C12       -11.6623   -1.4957   58.5716 C.ar    1  ZINC000477589488   -0.0700
     13 C13       -12.8790   -2.1095   58.9134 C.ar    1  ZINC000477589488   -0.0400
     14 C14       -13.8017   -1.4774   59.7645 C.ar    1  ZINC000477589488   -0.1100
     15 C15       -14.9704   -2.1022   60.0734 C.ar    1  ZINC000477589488   -0.1100
     16 C16       -15.2683   -3.3628   59.5587 C.ar    1  ZINC000477589488   -0.1100
     17 C17       -14.3989   -4.0054   58.7321 C.ar    1  ZINC000477589488   -0.1100
     18 C18       -13.1821   -3.3913   58.3895 C.ar    1  ZINC000477589488   -0.0500
     19 C19       -12.2598   -4.0233   57.5386 C.ar    1  ZINC000477589488   -0.1000
     20 C20       -11.0912   -3.3977   57.2285 C.ar    1  ZINC000477589488   -0.1100
     21 C21       -10.7955   -2.1356   57.7395 C.ar    1  ZINC000477589488   -0.1100
     22 N22       -10.1560    1.8664   56.2613 N.am    1  ZINC000477589488   -0.6300
     23 C23        -8.6963    1.8529   56.4415 C.3     1  ZINC000477589488    0.1300
     24 C24        -8.0470    1.4209   55.1224 C.3     1  ZINC000477589488    0.0500
     25 N25        -8.5309    2.2837   54.0365 N.3     1  ZINC000477589488   -0.4700
     26 C26        -7.8438    2.0298   52.8545 C.ar    1  ZINC000477589488    0.2500
     27 C27        -7.6612    0.7182   52.4182 C.ar    1  ZINC000477589488   -0.1300
     28 C28        -6.9694    0.5188   51.2338 C.ar    1  ZINC000477589488   -0.0900
     29 C29        -6.5016    1.6354   50.5556 C.ar    1  ZINC000477589488    0.0200
     30 N30        -6.7198    2.8413   51.0413 N.ar    1  ZINC000477589488   -0.2200
     31 N31        -7.3642    3.0337   52.1345 N.ar    1  ZINC000477589488   -0.2800
     32 C32        -9.9800    2.1373   53.8449 C.3     1  ZINC000477589488    0.0400
     33 C33       -10.7081    2.5936   55.1083 C.3     1  ZINC000477589488    0.1200
     34 H34        -9.4803    0.5499   58.3108 H       1  ZINC000477589488    0.3900
     35 H35       -11.7552    1.2593   61.3917 H       1  ZINC000477589488    0.1100
     36 H36       -10.6104    1.0119   63.5577 H       1  ZINC000477589488    0.1200
     37 H37        -8.8334   -0.6714   63.8258 H       1  ZINC000477589488    0.1200
     38 H38        -8.2019   -2.1080   61.9283 H       1  ZINC000477589488    0.1200
     39 H39        -9.3499   -1.8637   59.7636 H       1  ZINC000477589488    0.1200
     40 H40       -13.5842   -0.5009   60.1714 H       1  ZINC000477589488    0.1300
     41 H41       -15.6777   -1.6142   60.7276 H       1  ZINC000477589488    0.1300
     42 H42       -16.2028   -3.8368   59.8200 H       1  ZINC000477589488    0.1300
     43 H43       -14.6429   -4.9823   58.3413 H       1  ZINC000477589488    0.1300
     44 H44       -12.4767   -5.0005   57.1331 H       1  ZINC000477589488    0.1300
     45 H45       -10.3839   -3.8859   56.5745 H       1  ZINC000477589488    0.1300
     46 H46        -9.8614   -1.6611   57.4775 H       1  ZINC000477589488    0.1200
     47 H47        -8.3513    2.8515   56.7097 H       1  ZINC000477589488    0.0800
     48 H48        -8.4311    1.1471   57.2286 H       1  ZINC000477589488    0.1100
     49 H49        -6.9638    1.5111   55.2035 H       1  ZINC000477589488    0.1000
     50 H50        -8.3112    0.3851   54.9092 H       1  ZINC000477589488    0.0600
     51 H51        -8.0463   -0.1162   52.9856 H       1  ZINC000477589488    0.1500
     52 H52        -6.7992   -0.4764   50.8502 H       1  ZINC000477589488    0.1500
     53 H53        -5.9584    1.5164   49.6298 H       1  ZINC000477589488    0.1700
     54 H54       -10.2986    2.7472   52.9996 H       1  ZINC000477589488    0.1000
     55 H55       -10.2172    1.0915   53.6494 H       1  ZINC000477589488    0.0600
     56 H56       -11.7728    2.3802   55.0144 H       1  ZINC000477589488    0.0800
     57 H57       -10.5575    3.6636   55.2514 H       1  ZINC000477589488    0.0900
@<TRIPOS>BOND
     1     1     2    2
     2     2     3   am
     3     2    22   am
     4     3     4    1
     5     3    34    1
     6     4     5    1
     7     4     6    1
     8     4    12    1
     9     6    11   ar
    10     6     7   ar
    11     7     8   ar
    12     7    35    1
    13     8     9   ar
    14     8    36    1
    15     9    10   ar
    16     9    37    1
    17    10    11   ar
    18    10    38    1
    19    11    39    1
    20    12    21   ar
    21    12    13   ar
    22    13    18   ar
    23    13    14   ar
    24    14    15   ar
    25    14    40    1
    26    15    16   ar
    27    15    41    1
    28    16    17   ar
    29    16    42    1
    30    17    18   ar
    31    17    43    1
    32    18    19   ar
    33    19    20   ar
    34    19    44    1
    35    20    21   ar
    36    20    45    1
    37    21    46    1
    38    22    33    1
    39    22    23    1
    40    23    24    1
    41    23    47    1
    42    23    48    1
    43    24    25    1
    44    24    49    1
    45    24    50    1
    46    25    26    1
    47    25    32    1
    48    26    31   ar
    49    26    27   ar
    50    27    28   ar
    51    27    51    1
    52    28    29   ar
    53    28    52    1
    54    29    30   ar
    55    29    53    1
    56    30    31   ar
    57    32    33    1
    58    32    54    1
    59    32    55    1
    60    33    56    1
    61    33    57    1
@<TRIPOS>SUBSTRUCTURE
     1 ZINC000477589488        1 TEMP              0 ****  ****    0 ROOT


##########                                Name:    ZINC000543020509
##########                DOCK_Rotatable_Bonds:                   5
##########                         Heavy_Atoms:                  26
##########                    Molecular_Weight:              366.81
##########                DOCK_Rotatable_Bonds:                   5
##########                       Formal_Charge:               -0.02
##########                     HBond_Acceptors:                   8
##########                        HBond_Donors:                   1
##########                         Heavy_Atoms:                  26
##########                          Grid_Score:          -31.176823
##########                     Grid_vdw_energy:          -30.635471
##########                      Grid_es_energy:           -0.541352
##########           Internal_energy_repulsive:           14.259757

@<TRIPOS>MOLECULE
ZINC000543020509
 41 43 1 0 0
SMALL
USER_CHARGES


@<TRIPOS>ATOM
      1 C1          0.9981    3.4334   43.2674 C.3     1  ZINC000543020509    0.0800
      2 N2          0.3973    3.6712   44.5822 N.pl3   1  ZINC000543020509   -0.6200
      3 C3          0.7529    4.8711   45.3438 C.3     1  ZINC000543020509    0.0900
      4 C4         -0.5116    2.7573   45.1077 C.ar    1  ZINC000543020509    0.2500
      5 C5         -0.8434    1.5977   44.4092 C.ar    1  ZINC000543020509   -0.2200
      6 C6         -1.7498    0.7117   44.9618 C.ar    1  ZINC000543020509    0.1400
      7 N7         -2.3006    0.9483   46.1336 N.ar    1  ZINC000543020509   -0.5000
      8 C8         -2.0144    2.0400   46.8348 C.ar    1  ZINC000543020509    0.1100
      9 C9         -2.6618    2.2586   48.1491 C.2     1  ZINC000543020509    0.5900
     10 O10        -2.3826    3.2407   48.8083 O.2     1  ZINC000543020509   -0.5000
     11 N11        -3.5606    1.3684   48.6140 N.am    1  ZINC000543020509   -0.6200
     12 C12        -4.1736    1.5758   49.8550 C.2     1  ZINC000543020509    0.3200
     13 N13        -5.4629    1.5228   50.0949 N.2     1  ZINC000543020509   -0.3100
     14 N14        -5.6663    1.7867   51.4556 N.pl3   1  ZINC000543020509   -0.3300
     15 C15        -6.8998    1.8230   52.1104 C.ar    1  ZINC000543020509    0.2200
     16 C16        -7.2978    2.9688   52.7830 C.ar    1  ZINC000543020509   -0.1300
     17 C17        -8.5178    3.0036   53.4300 C.ar    1  ZINC000543020509   -0.0500
     18 C18        -9.3521    1.8974   53.4129 C.ar    1  ZINC000543020509   -0.0600
     19 Cl19      -10.8824    1.9562   54.2306 Cl      1  ZINC000543020509   -0.0500
     20 C20        -8.9721    0.7492   52.7481 C.ar    1  ZINC000543020509   -0.0400
     21 C21        -7.7439    0.7027   52.0855 C.ar    1  ZINC000543020509   -0.0200
     22 C22        -7.3434   -0.4855   51.3939 C.1     1  ZINC000543020509    0.2500
     23 N23        -7.0257   -1.4281   50.8451 N.1     1  ZINC000543020509   -0.3800
     24 C24        -4.4518    2.0005   52.0261 C.2     1  ZINC000543020509    0.0700
     25 C25        -3.5144    1.8708   51.0605 C.2     1  ZINC000543020509   -0.2400
     26 C26        -1.1086    2.9762   46.3492 C.ar    1  ZINC000543020509   -0.1800
     27 H27         1.9191    2.8627   43.3867 H       1  ZINC000543020509    0.0600
     28 H28         0.3008    2.8719   42.6455 H       1  ZINC000543020509    0.0700
     29 H29         1.2213    4.3884   42.7918 H       1  ZINC000543020509    0.0700
     30 H30         1.4719    5.4619   44.7762 H       1  ZINC000543020509    0.0800
     31 H31        -0.1427    5.4651   45.5253 H       1  ZINC000543020509    0.0600
     32 H32         1.1944    4.5790   46.2967 H       1  ZINC000543020509    0.0600
     33 H33        -0.3978    1.3936   43.4468 H       1  ZINC000543020509    0.1400
     34 H34        -2.0099   -0.1878   44.4237 H       1  ZINC000543020509    0.1700
     35 H35        -3.7827    0.5839   48.0885 H       1  ZINC000543020509    0.4300
     36 H36        -6.6529    3.8349   52.8011 H       1  ZINC000543020509    0.1500
     37 H37        -8.8229    3.8981   53.9526 H       1  ZINC000543020509    0.1500
     38 H38        -9.6254   -0.1107   52.7372 H       1  ZINC000543020509    0.1500
     39 H39        -4.2678    2.2290   53.0655 H       1  ZINC000543020509    0.1900
     40 H40        -2.4481    1.9809   51.1912 H       1  ZINC000543020509    0.1800
     41 H41        -0.8767    3.8628   46.9207 H       1  ZINC000543020509    0.1500
@<TRIPOS>BOND
     1     1     2    1
     2     1    27    1
     3     1    28    1
     4     1    29    1
     5     2     3    1
     6     2     4    1
     7     3    30    1
     8     3    31    1
     9     3    32    1
    10     4    26   ar
    11     4     5   ar
    12     5     6   ar
    13     5    33    1
    14     6     7   ar
    15     6    34    1
    16     7     8   ar
    17     8     9    1
    18     8    26   ar
    19     9    10    2
    20     9    11   am
    21    11    12    1
    22    11    35    1
    23    12    25    1
    24    12    13    2
    25    13    14    1
    26    14    15    1
    27    14    24    1
    28    15    21   ar
    29    15    16   ar
    30    16    17   ar
    31    16    36    1
    32    17    18   ar
    33    17    37    1
    34    18    19    1
    35    18    20   ar
    36    20    21   ar
    37    20    38    1
    38    21    22    1
    39    22    23    3
    40    24    25    2
    41    24    39    1
    42    25    40    1
    43    26    41    1
@<TRIPOS>SUBSTRUCTURE
     1 ZINC000543020509        1 TEMP              0 ****  ****    0 ROOT


##########                                Name:    ZINC000364058410
##########                DOCK_Rotatable_Bonds:                   5
##########                         Heavy_Atoms:                  25
##########                    Molecular_Weight:             358.464
##########                DOCK_Rotatable_Bonds:                   5
##########                       Formal_Charge:           0.0100002
##########                     HBond_Acceptors:                   7
##########                        HBond_Donors:                   0
##########                         Heavy_Atoms:                  25
##########                          Grid_Score:          -31.170164
##########                     Grid_vdw_energy:          -30.224512
##########                      Grid_es_energy:           -0.945652
##########           Internal_energy_repulsive:           61.066322

@<TRIPOS>MOLECULE
ZINC000364058410
 47 50 1 0 0
SMALL
USER_CHARGES


@<TRIPOS>ATOM
      1 C1        -15.3784   -0.2781   48.7519 C.3     1  ZINC000364058410   -0.0700
      2 C2        -14.5676   -0.9373   49.8378 C.2     1  ZINC000364058410   -0.2500
      3 C3        -13.3839   -0.4987   50.3250 C.2     1  ZINC000364058410    0.0800
      4 N4        -12.9869   -1.3638   51.2817 N.pl3   1  ZINC000364058410   -0.3600
      5 C5        -11.7570   -1.2698   52.0720 C.3     1  ZINC000364058410    0.1300
      6 C6        -12.0007   -1.0000   53.5680 C.3     1  ZINC000364058410    0.1100
      7 N7        -12.0181   -2.4671   53.7270 N.am    1  ZINC000364058410   -0.6500
      8 C8        -12.5641   -3.3137   54.6222 C.2     1  ZINC000364058410    0.5600
      9 O9        -12.4077   -4.5101   54.4989 O.2     1  ZINC000364058410   -0.5000
     10 C10       -13.3691   -2.7740   55.7761 C.3     1  ZINC000364058410    0.1400
     11 H11       -13.7705   -1.7947   55.5154 H       1  ZINC000364058410    0.0900
     12 C12       -14.5209   -3.7334   56.0922 C.3     1  ZINC000364058410   -0.1200
     13 C13       -15.2494   -3.2530   57.3494 C.3     1  ZINC000364058410   -0.1200
     14 C14       -14.2807   -3.2543   58.5342 C.3     1  ZINC000364058410   -0.1400
     15 C15       -13.1262   -2.2895   58.2458 C.3     1  ZINC000364058410    0.1000
     16 N16       -12.5105   -2.6544   56.9624 N.am    1  ZINC000364058410   -0.6000
     17 C17       -11.1845   -2.8800   56.8765 C.2     1  ZINC000364058410    0.5900
     18 O18       -10.6866   -3.1816   55.8076 O.2     1  ZINC000364058410   -0.4900
     19 C19       -10.3420   -2.7622   58.0702 C.2     1  ZINC000364058410   -0.2600
     20 C20        -9.9289   -3.8020   58.8546 C.2     1  ZINC000364058410   -0.0600
     21 C21        -9.1455   -3.4068   59.9129 C.2     1  ZINC000364058410   -0.1400
     22 C22        -8.9236   -2.0896   59.9942 C.2     1  ZINC000364058410   -0.2400
     23 S23        -9.6950   -1.2610   58.7178 S.3     1  ZINC000364058410    0.2100
     24 C24       -11.1972   -2.6347   52.5121 C.3     1  ZINC000364058410    0.0900
     25 N25       -13.9588   -2.3672   51.3858 N.2     1  ZINC000364058410   -0.3000
     26 C26       -14.9086   -2.1073   50.5241 C.2     1  ZINC000364058410    0.0500
     27 H27       -16.0675    0.4393   49.1977 H       1  ZINC000364058410    0.0600
     28 H28       -14.7107    0.2392   48.0630 H       1  ZINC000364058410    0.0600
     29 H29       -15.9438   -1.0361   48.2096 H       1  ZINC000364058410    0.0600
     30 H30       -12.8521    0.3854   50.0055 H       1  ZINC000364058410    0.1700
     31 H31       -11.0117   -0.6142   51.6218 H       1  ZINC000364058410    0.1300
     32 H32       -11.1635   -0.5136   54.0687 H       1  ZINC000364058410    0.1100
     33 H33       -12.9585   -0.5239   53.7783 H       1  ZINC000364058410    0.0900
     34 H34       -15.2172   -3.7545   55.2539 H       1  ZINC000364058410    0.0800
     35 H35       -14.1243   -4.7345   56.2616 H       1  ZINC000364058410    0.0800
     36 H36       -15.6242   -2.2423   57.1880 H       1  ZINC000364058410    0.0700
     37 H37       -16.0846   -3.9202   57.5624 H       1  ZINC000364058410    0.0800
     38 H38       -14.8060   -2.9344   59.4341 H       1  ZINC000364058410    0.0800
     39 H39       -13.8864   -4.2599   58.6807 H       1  ZINC000364058410    0.0700
     40 H40       -13.5077   -1.2700   58.1890 H       1  ZINC000364058410    0.0800
     41 H41       -12.3838   -2.3602   59.0408 H       1  ZINC000364058410    0.0900
     42 H42       -10.1919   -4.8317   58.6625 H       1  ZINC000364058410    0.1500
     43 H43        -8.7392   -4.1081   60.6267 H       1  ZINC000364058410    0.1500
     44 H44        -8.3317   -1.6150   60.7629 H       1  ZINC000364058410    0.1700
     45 H45       -11.5134   -3.4639   51.8791 H       1  ZINC000364058410    0.0900
     46 H46       -10.1240   -2.6287   52.7026 H       1  ZINC000364058410    0.1100
     47 H47       -15.7984   -2.6983   50.3651 H       1  ZINC000364058410    0.1800
@<TRIPOS>BOND
     1     1     2    1
     2     1    27    1
     3     1    28    1
     4     1    29    1
     5     2    26    1
     6     2     3    2
     7     3     4    1
     8     3    30    1
     9     4     5    1
    10     4    25    1
    11     5    24    1
    12     5     6    1
    13     5    31    1
    14     6     7    1
    15     6    32    1
    16     6    33    1
    17     7     8   am
    18     7    24    1
    19     8     9    2
    20     8    10    1
    21    10    11    1
    22    10    16    1
    23    10    12    1
    24    12    13    1
    25    12    34    1
    26    12    35    1
    27    13    14    1
    28    13    36    1
    29    13    37    1
    30    14    15    1
    31    14    38    1
    32    14    39    1
    33    15    16    1
    34    15    40    1
    35    15    41    1
    36    16    17   am
    37    17    18    2
    38    17    19    1
    39    19    23    1
    40    19    20    2
    41    20    21    1
    42    20    42    1
    43    21    22    2
    44    21    43    1
    45    22    23    1
    46    22    44    1
    47    24    45    1
    48    24    46    1
    49    25    26    2
    50    26    47    1
@<TRIPOS>SUBSTRUCTURE
     1 ZINC000364058410        1 TEMP              0 ****  ****    0 ROOT


##########                                Name:    ZINC000676564986
##########                DOCK_Rotatable_Bonds:                   5
##########                         Heavy_Atoms:                  25
##########                    Molecular_Weight:             347.444
##########                DOCK_Rotatable_Bonds:                   5
##########                       Formal_Charge:          -0.0100005
##########                     HBond_Acceptors:                   6
##########                        HBond_Donors:                   1
##########                         Heavy_Atoms:                  25
##########                          Grid_Score:          -31.168459
##########                     Grid_vdw_energy:          -29.697393
##########                      Grid_es_energy:           -1.471065
##########           Internal_energy_repulsive:            5.405313

@<TRIPOS>MOLECULE
ZINC000676564986
 42 45 1 0 0
SMALL
USER_CHARGES


@<TRIPOS>ATOM
      1 C1         -9.2420   -1.3396   61.1311 C.3     1  ZINC000676564986    0.0800
      2 N2         -9.7110   -2.3830   60.2158 N.pl3   1  ZINC000676564986   -0.4800
      3 C3         -8.9836   -3.4410   59.7579 C.2     1  ZINC000676564986    0.2500
      4 N4         -9.7111   -4.1697   58.9622 N.2     1  ZINC000676564986   -0.4600
      5 C5        -10.9482   -3.6272   58.8590 C.ar    1  ZINC000676564986   -0.1100
      6 C6        -12.1206   -3.9657   58.1626 C.ar    1  ZINC000676564986    0.5100
      7 N7        -12.1660   -5.0898   57.3567 N.pl3   1  ZINC000676564986   -0.6900
      8 C8        -13.1646   -5.1860   56.2892 C.3     1  ZINC000676564986    0.1700
      9 C9        -12.8792   -4.1436   55.2389 C.ar    1  ZINC000676564986   -0.0800
     10 C10       -13.9244   -3.5432   54.5608 C.ar    1  ZINC000676564986   -0.1100
     11 C11       -13.6666   -2.5877   53.5980 C.ar    1  ZINC000676564986   -0.0700
     12 C12       -12.3550   -2.2296   53.3103 C.ar    1  ZINC000676564986   -0.1300
     13 S13       -12.0212   -1.0105   52.0828 S.3     1  ZINC000676564986   -0.0100
     14 C14       -10.7041   -0.0814   52.7947 C.ar    1  ZINC000676564986   -0.1000
     15 C15       -10.9513    0.7693   53.8655 C.ar    1  ZINC000676564986   -0.1200
     16 C16        -9.9167    1.4955   54.4212 C.ar    1  ZINC000676564986   -0.1000
     17 C17        -8.6357    1.3771   53.9135 C.ar    1  ZINC000676564986   -0.1200
     18 C18        -8.3861    0.5316   52.8478 C.ar    1  ZINC000676564986   -0.1000
     19 C19        -9.4148   -0.2017   52.2905 C.ar    1  ZINC000676564986   -0.1000
     20 C20       -11.3072   -2.8351   53.9937 C.ar    1  ZINC000676564986   -0.0700
     21 C21       -11.5727   -3.7857   54.9593 C.ar    1  ZINC000676564986   -0.1100
     22 N22       -13.1853   -3.1813   58.2959 N.ar    1  ZINC000676564986   -0.5900
     23 C23       -13.1514   -2.1070   59.0630 C.ar    1  ZINC000676564986    0.3600
     24 N24       -12.0756   -1.7511   59.7334 N.ar    1  ZINC000676564986   -0.5600
     25 C25       -10.9649   -2.4775   59.6668 C.ar    1  ZINC000676564986    0.3000
     26 H26        -9.4340   -1.6455   62.1596 H       1  ZINC000676564986    0.0800
     27 H27        -8.1717   -1.1877   60.9911 H       1  ZINC000676564986    0.0900
     28 H28        -9.7713   -0.4096   60.9238 H       1  ZINC000676564986    0.0900
     29 H29        -7.9550   -3.6442   60.0169 H       1  ZINC000676564986    0.2200
     30 H30       -11.5365   -5.8141   57.4986 H       1  ZINC000676564986    0.4200
     31 H31       -13.1204   -6.1775   55.8385 H       1  ZINC000676564986    0.0800
     32 H32       -14.1583   -5.0200   56.7051 H       1  ZINC000676564986    0.0800
     33 H33       -14.9435   -3.8221   54.7847 H       1  ZINC000676564986    0.1300
     34 H34       -14.4833   -2.1195   53.0686 H       1  ZINC000676564986    0.1400
     35 H35       -11.9514    0.8625   54.2624 H       1  ZINC000676564986    0.1200
     36 H36       -10.1081    2.1570   55.2532 H       1  ZINC000676564986    0.1300
     37 H37        -7.8285    1.9466   54.3498 H       1  ZINC000676564986    0.1300
     38 H38        -7.3846    0.4416   52.4538 H       1  ZINC000676564986    0.1300
     39 H39        -9.2191   -0.8620   51.4585 H       1  ZINC000676564986    0.1300
     40 H40       -10.2867   -2.5593   53.7727 H       1  ZINC000676564986    0.1300
     41 H41       -10.7590   -4.2567   55.4907 H       1  ZINC000676564986    0.1300
     42 H42       -14.0391   -1.4972   59.1431 H       1  ZINC000676564986    0.2000
@<TRIPOS>BOND
     1     1     2    1
     2     1    26    1
     3     1    27    1
     4     1    28    1
     5     2    25    1
     6     2     3    1
     7     3     4    2
     8     3    29    1
     9     4     5    1
    10     5    25   ar
    11     5     6   ar
    12     6     7    1
    13     6    22   ar
    14     7     8    1
    15     7    30    1
    16     8     9    1
    17     8    31    1
    18     8    32    1
    19     9    21   ar
    20     9    10   ar
    21    10    11   ar
    22    10    33    1
    23    11    12   ar
    24    11    34    1
    25    12    13    1
    26    12    20   ar
    27    13    14    1
    28    14    19   ar
    29    14    15   ar
    30    15    16   ar
    31    15    35    1
    32    16    17   ar
    33    16    36    1
    34    17    18   ar
    35    17    37    1
    36    18    19   ar
    37    18    38    1
    38    19    39    1
    39    20    21   ar
    40    20    40    1
    41    21    41    1
    42    22    23   ar
    43    23    24   ar
    44    23    42    1
    45    24    25   ar
@<TRIPOS>SUBSTRUCTURE
     1 ZINC000676564986        1 TEMP              0 ****  ****    0 ROOT


##########                                Name:    ZINC000673213454
##########                DOCK_Rotatable_Bonds:                   7
##########                         Heavy_Atoms:                  26
##########                    Molecular_Weight:             360.453
##########                DOCK_Rotatable_Bonds:                   7
##########                       Formal_Charge:          -0.0100001
##########                     HBond_Acceptors:                   6
##########                        HBond_Donors:                   1
##########                         Heavy_Atoms:                  26
##########                          Grid_Score:          -31.014658
##########                     Grid_vdw_energy:          -30.644735
##########                      Grid_es_energy:           -0.369922
##########           Internal_energy_repulsive:           20.611380

@<TRIPOS>MOLECULE
ZINC000673213454
 54 56 1 0 0
SMALL
USER_CHARGES


@<TRIPOS>ATOM
      1 C1         -9.3720   -1.6752   59.7034 C.3     1  ZINC000673213454   -0.1700
      2 C2        -10.8685   -1.3694   59.7918 C.3     1  ZINC000673213454    0.1400
      3 H3        -11.1098   -0.5402   59.1269 H       1  ZINC000673213454    0.0900
      4 C4        -11.2277   -0.9911   61.2301 C.3     1  ZINC000673213454   -0.1200
      5 C5        -10.4420    0.2559   61.6407 C.3     1  ZINC000673213454   -0.1300
      6 H6         -9.3702    0.0663   61.5838 H       1  ZINC000673213454    0.0800
      7 C7        -10.8387    0.7001   63.0698 C.3     1  ZINC000673213454   -0.1500
      8 C8        -10.8879    2.2428   62.9283 C.3     1  ZINC000673213454    0.0500
      9 O9        -11.4296    2.4426   61.6049 O.3     1  ZINC000673213454   -0.3800
     10 C10       -10.8261    1.4531   60.7495 C.3     1  ZINC000673213454    0.0500
     11 N11       -11.6332   -2.5536   59.3929 N.am    1  ZINC000673213454   -0.6900
     12 C12       -12.7549   -2.4156   58.6585 C.2     1  ZINC000673213454    0.5100
     13 O13       -13.1305   -1.3105   58.3264 O.2     1  ZINC000673213454   -0.5100
     14 C14       -13.5360   -3.6234   58.2531 C.2     1  ZINC000673213454    0.5000
     15 O15       -14.4243   -4.0396   58.9675 O.2     1  ZINC000673213454   -0.5200
     16 N16       -13.2540   -4.2505   57.0939 N.am    1  ZINC000673213454   -0.5800
     17 C17       -14.0421   -5.4402   56.7205 C.3     1  ZINC000673213454    0.1100
     18 C18       -14.3921   -5.4224   55.2253 C.3     1  ZINC000673213454   -0.1700
     19 C19       -14.7521   -4.0117   54.8049 C.3     1  ZINC000673213454    0.0800
     20 O20       -13.5760   -3.3567   54.3482 O.3     1  ZINC000673213454   -0.3800
     21 C21       -12.7668   -2.7044   55.2562 C.3     1  ZINC000673213454    0.1500
     22 H22       -13.3523   -1.9595   55.7951 H       1  ZINC000673213454    0.0600
     23 C23       -11.6386   -2.0235   54.5249 C.ar    1  ZINC000673213454   -0.0800
     24 C24       -11.1392   -2.5732   53.3591 C.ar    1  ZINC000673213454   -0.0900
     25 C25       -10.1044   -1.9486   52.6884 C.ar    1  ZINC000673213454   -0.1300
     26 C26        -9.5692   -0.7741   53.1833 C.ar    1  ZINC000673213454   -0.1200
     27 C27       -10.0692   -0.2238   54.3486 C.ar    1  ZINC000673213454   -0.1300
     28 C28       -11.1070   -0.8462   55.0171 C.ar    1  ZINC000673213454   -0.0900
     29 C29       -12.1902   -3.7264   56.2574 C.3     1  ZINC000673213454    0.0700
     30 H30        -9.1307   -2.5045   60.3683 H       1  ZINC000673213454    0.0600
     31 H31        -9.1161   -1.9448   58.6787 H       1  ZINC000673213454    0.0600
     32 H32        -8.8029   -0.7942   60.0003 H       1  ZINC000673213454    0.0700
     33 H33       -12.2961   -0.7853   61.2956 H       1  ZINC000673213454    0.0800
     34 H34       -10.9749   -1.8157   61.8967 H       1  ZINC000673213454    0.0900
     35 H35       -11.8162    0.3030   63.3432 H       1  ZINC000673213454    0.0800
     36 H36       -10.0819    0.3999   63.7944 H       1  ZINC000673213454    0.0800
     37 H37       -11.5455    2.6764   63.6817 H       1  ZINC000673213454    0.0900
     38 H38        -9.8866    2.6671   63.0013 H       1  ZINC000673213454    0.0600
     39 H39        -9.9360    1.8664   60.2752 H       1  ZINC000673213454    0.0600
     40 H40       -11.5397    1.1352   59.9895 H       1  ZINC000673213454    0.0900
     41 H41       -11.3324   -3.4370   59.6573 H       1  ZINC000673213454    0.4100
     42 H42       -13.4632   -6.3368   56.9420 H       1  ZINC000673213454    0.0800
     43 H43       -14.9629   -5.4568   57.3036 H       1  ZINC000673213454    0.0900
     44 H44       -13.5340   -5.7656   54.6476 H       1  ZINC000673213454    0.0800
     45 H45       -15.2398   -6.0829   55.0431 H       1  ZINC000673213454    0.0900
     46 H46       -15.4869   -4.0464   54.0005 H       1  ZINC000673213454    0.1000
     47 H47       -15.1645   -3.4705   55.6565 H       1  ZINC000673213454    0.0500
     48 H48       -11.5573   -3.4908   52.9724 H       1  ZINC000673213454    0.1300
     49 H49        -9.7137   -2.3785   51.7778 H       1  ZINC000673213454    0.1200
     50 H50        -8.7603   -0.2864   52.6597 H       1  ZINC000673213454    0.1200
     51 H51        -9.6510    0.6937   54.7356 H       1  ZINC000673213454    0.1200
     52 H52       -11.4977   -0.4162   55.9275 H       1  ZINC000673213454    0.1300
     53 H53       -11.4446   -3.2386   56.8853 H       1  ZINC000673213454    0.1200
     54 H54       -11.7244   -4.5467   55.7113 H       1  ZINC000673213454    0.0800
@<TRIPOS>BOND
     1     1     2    1
     2     1    30    1
     3     1    31    1
     4     1    32    1
     5     2     3    1
     6     2     4    1
     7     2    11    1
     8     4     5    1
     9     4    33    1
    10     4    34    1
    11     5     6    1
    12     5    10    1
    13     5     7    1
    14     7     8    1
    15     7    35    1
    16     7    36    1
    17     8     9    1
    18     8    37    1
    19     8    38    1
    20     9    10    1
    21    10    39    1
    22    10    40    1
    23    11    12   am
    24    11    41    1
    25    12    13    2
    26    12    14    1
    27    14    15    2
    28    14    16   am
    29    16    29    1
    30    16    17    1
    31    17    18    1
    32    17    42    1
    33    17    43    1
    34    18    19    1
    35    18    44    1
    36    18    45    1
    37    19    20    1
    38    19    46    1
    39    19    47    1
    40    20    21    1
    41    21    22    1
    42    21    23    1
    43    21    29    1
    44    23    28   ar
    45    23    24   ar
    46    24    25   ar
    47    24    48    1
    48    25    26   ar
    49    25    49    1
    50    26    27   ar
    51    26    50    1
    52    27    28   ar
    53    27    51    1
    54    28    52    1
    55    29    53    1
    56    29    54    1
@<TRIPOS>SUBSTRUCTURE
     1 ZINC000673213454        1 TEMP              0 ****  ****    0 ROOT


##########                                Name:    ZINC000012087388
##########                DOCK_Rotatable_Bonds:                   5
##########                         Heavy_Atoms:                  29
##########                    Molecular_Weight:              418.52
##########                DOCK_Rotatable_Bonds:                   5
##########                       Formal_Charge:          -0.0499999
##########                     HBond_Acceptors:                  10
##########                        HBond_Donors:                   1
##########                         Heavy_Atoms:                  29
##########                          Grid_Score:          -30.981390
##########                     Grid_vdw_energy:          -30.687674
##########                      Grid_es_energy:           -0.293717
##########           Internal_energy_repulsive:           31.534023

@<TRIPOS>MOLECULE
ZINC000012087388
 55 58 1 0 0
SMALL
USER_CHARGES


@<TRIPOS>ATOM
      1 C1        -10.7308   -1.7440   60.9045 C.3     1  <0>        -0.6600
      2 S2         -9.5907   -2.6508   59.8235 S.o2    1  <0>         2.5100
      3 O3         -8.4227   -1.8813   59.5732 O.2     1  <0>        -0.9400
      4 O4         -9.5000   -4.0112   60.2238 O.2     1  <0>        -0.9300
      5 C5        -10.4141   -2.7098   58.2669 C.ar    1  <0>        -0.8400
      6 C6        -10.8496   -3.9160   57.7416 C.ar    1  <0>         0.3000
      7 N7        -11.4648   -3.9254   56.5706 N.ar    1  <0>        -0.5800
      8 C8        -11.6660   -2.7994   55.9023 C.ar    1  <0>         0.6000
      9 N9        -12.3132   -2.8457   54.6798 N.pl3   1  <0>        -0.5700
     10 C10       -13.5391   -2.0685   54.4517 C.3     1  <0>         0.1200
     11 C11       -13.3520   -1.2093   53.1973 C.3     1  <0>        -0.1400
     12 C12       -12.9493   -2.1065   52.0247 C.3     1  <0>        -0.1200
     13 C13       -11.6200   -2.7959   52.3407 C.3     1  <0>        -0.1400
     14 C14       -11.7842   -3.6684   53.5834 C.3     1  <0>         0.1200
     15 N15       -11.2626   -1.6297   56.3766 N.ar    1  <0>        -0.5700
     16 C16       -10.6456   -1.5499   57.5438 C.ar    1  <0>         0.3200
     17 C17       -10.1902   -0.2158   58.0760 C.3     1  <0>        -0.0700
     18 C18        -9.1878    0.4068   57.1013 C.3     1  <0>        -0.1300
     19 C19        -8.7009    1.7466   57.6622 C.3     1  <0>         0.0900
     20 N20        -9.8682    2.5915   57.9488 N.am    1  <0>        -0.6100
     21 C21        -9.9577    3.8353   57.4376 C.2     1  <0>         0.5900
     22 O22       -10.9294    4.5249   57.6822 O.2     1  <0>        -0.5100
     23 C23        -8.8800    4.3591   56.5833 C.2     1  <0>        -0.0400
     24 C24        -8.9131    4.5198   55.2091 C.2     1  <0>        -0.1500
     25 C25        -7.6645    5.0446   54.8677 C.2     1  <0>         0.0000
     26 N26        -6.9690    5.1740   55.9686 N.2     1  <0>        -0.2700
     27 N27        -7.6485    4.7895   56.9884 N.pl3   1  <0>        -0.3900
     28 C28       -10.9363    2.0546   58.8031 C.3     1  <0>         0.1100
     29 C29       -11.3981    0.7114   58.2294 C.3     1  <0>        -0.1200
     30 H30       -10.9027   -0.7477   60.4972 H       1  <0>         0.1400
     31 H31       -11.6778   -2.2802   60.9653 H       1  <0>         0.1300
     32 H32       -10.2967   -1.6592   61.9009 H       1  <0>         0.1400
     33 H33       -10.6882   -4.8373   58.2816 H       1  <0>         0.1900
     34 H34       -14.3803   -2.7467   54.3080 H       1  <0>         0.0700
     35 H35       -13.7286   -1.4248   55.3106 H       1  <0>         0.1000
     36 H36       -14.2868   -0.7006   52.9619 H       1  <0>         0.0800
     37 H37       -12.5703   -0.4708   53.3755 H       1  <0>         0.0700
     38 H38       -13.7199   -2.8603   51.8629 H       1  <0>         0.0700
     39 H39       -12.8395   -1.5009   51.1250 H       1  <0>         0.0700
     40 H40       -11.3222   -3.4166   51.4956 H       1  <0>         0.0800
     41 H41       -10.8547   -2.0425   52.5269 H       1  <0>         0.0700
     42 H42       -10.8173   -4.0826   53.8692 H       1  <0>         0.1000
     43 H43       -12.4827   -4.4779   53.3718 H       1  <0>         0.0700
     44 H44        -9.7139   -0.3552   59.0465 H       1  <0>         0.1000
     45 H45        -8.3385   -0.2647   56.9746 H       1  <0>         0.0800
     46 H46        -9.6705    0.5697   56.1377 H       1  <0>         0.0900
     47 H47        -8.1391    1.5758   58.5806 H       1  <0>         0.0800
     48 H48        -8.0639    2.2402   56.9283 H       1  <0>         0.0900
     49 H49        -9.7307    4.2886   54.5423 H       1  <0>         0.1700
     50 H50        -7.3320    5.2981   53.8719 H       1  <0>         0.1900
     51 H51        -7.3329    4.7970   57.9056 H       1  <0>         0.4400
     52 H52       -10.5568    1.9089   59.8144 H       1  <0>         0.0800
     53 H53       -11.7742    2.7515   58.8218 H       1  <0>         0.1000
     54 H54       -11.8600    0.8713   57.2552 H       1  <0>         0.0800
     55 H55       -12.1221    0.2566   58.9055 H       1  <0>         0.0900
@<TRIPOS>BOND
     1     1     2    1
     2     1    30    1
     3     1    31    1
     4     1    32    1
     5     2     3    2
     6     2     4    2
     7     2     5    1
     8     5    16   ar
     9     5     6   ar
    10     6     7   ar
    11     6    33    1
    12     7     8   ar
    13     8     9    1
    14     8    15   ar
    15     9    14    1
    16     9    10    1
    17    10    11    1
    18    10    34    1
    19    10    35    1
    20    11    12    1
    21    11    36    1
    22    11    37    1
    23    12    13    1
    24    12    38    1
    25    12    39    1
    26    13    14    1
    27    13    40    1
    28    13    41    1
    29    14    42    1
    30    14    43    1
    31    15    16   ar
    32    16    17    1
    33    17    29    1
    34    17    18    1
    35    17    44    1
    36    18    19    1
    37    18    45    1
    38    18    46    1
    39    19    20    1
    40    19    47    1
    41    19    48    1
    42    20    21   am
    43    20    28    1
    44    21    22    2
    45    21    23    1
    46    23    27    1
    47    23    24    2
    48    24    25    1
    49    24    49    1
    50    25    26    2
    51    25    50    1
    52    26    27    1
    53    27    51    1
    54    28    29    1
    55    28    52    1
    56    28    53    1
    57    29    54    1
    58    29    55    1
@<TRIPOS>SUBSTRUCTURE
     1 <0>         1 TEMP              0 ****  ****    0 ROOT


##########                                Name:    ZINC000794876634
##########                DOCK_Rotatable_Bonds:                   4
##########                         Heavy_Atoms:                  24
##########                    Molecular_Weight:             389.249
##########                DOCK_Rotatable_Bonds:                   4
##########                       Formal_Charge:        -4.47035e-08
##########                     HBond_Acceptors:                   5
##########                        HBond_Donors:                   0
##########                         Heavy_Atoms:                  24
##########                          Grid_Score:          -30.862001
##########                     Grid_vdw_energy:          -30.727497
##########                      Grid_es_energy:           -0.134505
##########           Internal_energy_repulsive:           54.502399

@<TRIPOS>MOLECULE
ZINC000794876634
 41 43 1 0 0
SMALL
USER_CHARGES


@<TRIPOS>ATOM
      1 C1         -9.0304    0.8426   64.1393 C.3     1  ZINC000794876634    0.0200
      2 O2         -8.6408   -0.3959   63.5423 O.3     1  ZINC000794876634   -0.3000
      3 C3         -9.1268   -0.6625   62.3026 C.ar    1  ZINC000794876634    0.1300
      4 C4         -8.7768   -1.8437   61.6614 C.ar    1  ZINC000794876634   -0.1800
      5 C5         -9.2657   -2.1201   60.4039 C.ar    1  ZINC000794876634   -0.0400
      6 C6         -8.8835   -3.4030   59.7117 C.3     1  ZINC000794876634   -0.1200
      7 C7        -10.1190   -1.2081   59.7688 C.ar    1  ZINC000794876634   -0.1000
      8 C8        -10.6415   -1.4992   58.4307 C.2     1  ZINC000794876634    0.0600
      9 C9        -11.8615   -2.0946   58.2892 C.2     1  ZINC000794876634   -0.1700
     10 C10       -12.7860   -2.5126   59.3571 C.2     1  ZINC000794876634    0.5700
     11 O11       -12.6005   -2.3882   60.5539 O.2     1  ZINC000794876634   -0.4900
     12 N12       -13.8701   -3.0546   58.7776 N.am    1  ZINC000794876634   -0.5300
     13 C13       -15.0178   -3.5893   59.5148 C.3     1  ZINC000794876634    0.0800
     14 C14       -13.7681   -3.0444   57.3951 C.ar    1  ZINC000794876634    0.3700
     15 N15       -14.5957   -3.4724   56.4498 N.ar    1  ZINC000794876634   -0.4900
     16 C16       -14.3042   -3.3675   55.1691 C.ar    1  ZINC000794876634    0.1800
     17 C17       -13.1154   -2.8032   54.7415 C.ar    1  ZINC000794876634   -0.1800
     18 Br18      -12.7287   -2.6675   52.8954 Br      1  ZINC000794876634   -0.0200
     19 C19       -12.2111   -2.3380   55.6852 C.ar    1  ZINC000794876634    0.0000
     20 C20       -12.5481   -2.4560   57.0295 C.ar    1  ZINC000794876634   -0.1400
     21 C21       -10.4715   -0.0163   60.4177 C.ar    1  ZINC000794876634   -0.1400
     22 C22        -9.9805    0.2487   61.6796 C.ar    1  ZINC000794876634    0.0900
     23 O23       -10.3206    1.4034   62.3124 O.3     1  ZINC000794876634   -0.3000
     24 C24       -11.2266    2.2738   61.6315 C.3     1  ZINC000794876634    0.0200
     25 H25        -8.5739    0.9301   65.1252 H       1  ZINC000794876634    0.1000
     26 H26        -8.6989    1.6691   63.5107 H       1  ZINC000794876634    0.0600
     27 H27       -10.1156    0.8732   64.2373 H       1  ZINC000794876634    0.0600
     28 H28        -8.1192   -2.5472   62.1502 H       1  ZINC000794876634    0.1400
     29 H29        -9.6044   -4.1806   59.9639 H       1  ZINC000794876634    0.0800
     30 H30        -8.8800   -3.2467   58.6330 H       1  ZINC000794876634    0.0700
     31 H31        -7.8895   -3.7095   60.0377 H       1  ZINC000794876634    0.0700
     32 H32       -10.0612   -1.2427   57.5568 H       1  ZINC000794876634    0.1500
     33 H33       -14.8466   -3.4758   60.5853 H       1  ZINC000794876634    0.0900
     34 H34       -15.9179   -3.0441   59.2310 H       1  ZINC000794876634    0.0800
     35 H35       -15.1424   -4.6456   59.2767 H       1  ZINC000794876634    0.0800
     36 H36       -15.0094   -3.7306   54.4361 H       1  ZINC000794876634    0.1800
     37 H37       -11.2742   -1.8928   55.3844 H       1  ZINC000794876634    0.1600
     38 H38       -11.1288    0.6903   59.9329 H       1  ZINC000794876634    0.1400
     39 H39       -10.7579    2.6450   60.7201 H       1  ZINC000794876634    0.0500
     40 H40       -12.1340    1.7265   61.3766 H       1  ZINC000794876634    0.0600
     41 H41       -11.4788    3.1140   62.2785 H       1  ZINC000794876634    0.1100
@<TRIPOS>BOND
     1     1     2    1
     2     1    25    1
     3     1    26    1
     4     1    27    1
     5     2     3    1
     6     3    22   ar
     7     3     4   ar
     8     4     5   ar
     9     4    28    1
    10     5     6    1
    11     5     7   ar
    12     6    29    1
    13     6    30    1
    14     6    31    1
    15     7     8    1
    16     7    21   ar
    17     8     9    2
    18     8    32    1
    19     9    20    1
    20     9    10    1
    21    10    11    2
    22    10    12   am
    23    12    13    1
    24    12    14    1
    25    13    33    1
    26    13    34    1
    27    13    35    1
    28    14    20   ar
    29    14    15   ar
    30    15    16   ar
    31    16    17   ar
    32    16    36    1
    33    17    18    1
    34    17    19   ar
    35    19    20   ar
    36    19    37    1
    37    21    22   ar
    38    21    38    1
    39    22    23    1
    40    23    24    1
    41    24    39    1
    42    24    40    1
    43    24    41    1
@<TRIPOS>SUBSTRUCTURE
     1 ZINC000794876634        1 TEMP              0 ****  ****    0 ROOT


##########                                Name:    ZINC000486710336
##########                DOCK_Rotatable_Bonds:                   6
##########                         Heavy_Atoms:                  31
##########                    Molecular_Weight:             420.555
##########                DOCK_Rotatable_Bonds:                   6
##########                       Formal_Charge:         1.49012e-07
##########                     HBond_Acceptors:                   6
##########                        HBond_Donors:                   1
##########                         Heavy_Atoms:                  31
##########                          Grid_Score:          -30.857483
##########                     Grid_vdw_energy:          -30.484274
##########                      Grid_es_energy:           -0.373209
##########           Internal_energy_repulsive:           56.642380

@<TRIPOS>MOLECULE
ZINC000486710336
 63 67 1 0 0
SMALL
USER_CHARGES


@<TRIPOS>ATOM
      1 C1         -8.9502   -3.0667   60.5168 C.3     1  ZINC000486710336    0.1000
      2 N2         -9.5389   -1.9302   61.2294 N.pl3   1  ZINC000486710336   -0.3900
      3 N3         -8.8663   -1.0656   62.1025 N.2     1  ZINC000486710336   -0.2800
      4 C4         -9.7196   -0.1766   62.5428 C.2     1  ZINC000486710336    0.1000
      5 C5         -9.4096    0.9407   63.5055 C.3     1  ZINC000486710336   -0.0100
      6 C6        -10.6718    1.3216   64.3183 C.3     1  ZINC000486710336   -0.1200
      7 C7        -10.0753    1.9736   65.5904 C.3     1  ZINC000486710336   -0.1200
      8 C8         -8.8235    1.1262   65.8983 C.3     1  ZINC000486710336   -0.1200
      9 C9         -8.4003    0.4695   64.5726 C.3     1  ZINC000486710336   -0.1100
     10 C10       -10.9664   -0.4384   61.9698 C.2     1  ZINC000486710336   -0.2600
     11 C11       -10.8330   -1.5234   61.1570 C.2     1  ZINC000486710336    0.3000
     12 N12       -11.8400   -2.1120   60.3974 N.am    1  ZINC000486710336   -0.6200
     13 C13       -11.7737   -2.0824   59.0517 C.2     1  ZINC000486710336    0.5100
     14 O14       -10.8365   -1.5411   58.5018 O.2     1  ZINC000486710336   -0.4800
     15 C15       -12.8530   -2.7153   58.2369 C.2     1  ZINC000486710336    0.5300
     16 O16       -13.8092   -3.2227   58.7857 O.2     1  ZINC000486710336   -0.5100
     17 N17       -12.7654   -2.7233   56.8920 N.am    1  ZINC000486710336   -0.5800
     18 C18       -11.6669   -2.1529   56.0915 C.3     1  ZINC000486710336    0.1000
     19 C19       -12.0262   -2.3698   54.6048 C.3     1  ZINC000486710336   -0.0600
     20 H20       -11.5561   -3.2756   54.2216 H       1  ZINC000486710336    0.1000
     21 C21       -11.6289   -1.1735   53.7789 C.ar    1  ZINC000486710336   -0.0700
     22 C22       -12.2036   -0.9682   52.5386 C.ar    1  ZINC000486710336   -0.1100
     23 C23       -11.8392    0.1291   51.7811 C.ar    1  ZINC000486710336   -0.1200
     24 C24       -10.9004    1.0214   52.2640 C.ar    1  ZINC000486710336   -0.1200
     25 C25       -10.3262    0.8166   53.5046 C.ar    1  ZINC000486710336   -0.1200
     26 C26       -10.6938   -0.2784   54.2641 C.ar    1  ZINC000486710336   -0.1100
     27 C27       -13.5772   -2.5272   54.6474 C.3     1  ZINC000486710336   -0.0800
     28 H28       -13.9696   -3.0729   53.7894 H       1  ZINC000486710336    0.1100
     29 C29       -14.1568   -1.1152   54.7556 C.3     1  ZINC000486710336   -0.1100
     30 C30       -15.6116   -1.1632   55.2166 C.3     1  ZINC000486710336   -0.1200
     31 C31       -15.6636   -1.7953   56.6116 C.3     1  ZINC000486710336   -0.1100
     32 C32       -15.1607   -3.2352   56.5087 C.3     1  ZINC000486710336   -0.1400
     33 C33       -13.7423   -3.3058   55.9682 C.3     1  ZINC000486710336    0.1400
     34 H34       -13.4807   -4.3528   55.8147 H       1  ZINC000486710336    0.0800
     35 H35        -8.5663   -2.7319   59.5531 H       1  ZINC000486710336    0.0800
     36 H36        -8.1347   -3.4834   61.1079 H       1  ZINC000486710336    0.1000
     37 H37        -9.7116   -3.8305   60.3590 H       1  ZINC000486710336    0.0800
     38 H38        -9.0220    1.8075   62.9702 H       1  ZINC000486710336    0.0900
     39 H39       -11.2841    2.0366   63.7687 H       1  ZINC000486710336    0.0700
     40 H40       -11.2493    0.4333   64.5742 H       1  ZINC000486710336    0.0800
     41 H41        -9.7962    3.0087   65.3935 H       1  ZINC000486710336    0.0700
     42 H42       -10.7852    1.9193   66.4157 H       1  ZINC000486710336    0.0700
     43 H43        -8.0227    1.7649   66.2710 H       1  ZINC000486710336    0.0600
     44 H44        -9.0635    0.3595   66.6349 H       1  ZINC000486710336    0.0600
     45 H45        -8.4349   -0.6160   64.6660 H       1  ZINC000486710336    0.0700
     46 H46        -7.3940    0.7894   64.3020 H       1  ZINC000486710336    0.0700
     47 H47       -11.8739    0.1222   62.1383 H       1  ZINC000486710336    0.1700
     48 H48       -12.5895   -2.5435   60.8367 H       1  ZINC000486710336    0.4200
     49 H49       -11.5716   -1.0870   56.2984 H       1  ZINC000486710336    0.0900
     50 H50       -10.7331   -2.6638   56.3259 H       1  ZINC000486710336    0.0800
     51 H51       -12.9372   -1.6654   52.1614 H       1  ZINC000486710336    0.1200
     52 H52       -12.2879    0.2891   50.8118 H       1  ZINC000486710336    0.1200
     53 H53       -10.6151    1.8784   51.6718 H       1  ZINC000486710336    0.1200
     54 H54        -9.5924    1.5135   53.8818 H       1  ZINC000486710336    0.1200
     55 H55       -10.2452   -0.4385   55.2334 H       1  ZINC000486710336    0.1200
     56 H56       -13.5714   -0.5409   55.4737 H       1  ZINC000486710336    0.0700
     57 H57       -14.1047   -0.6301   53.7810 H       1  ZINC000486710336    0.0700
     58 H58       -16.0156   -0.1517   55.2581 H       1  ZINC000486710336    0.0600
     59 H59       -16.1961   -1.7648   54.5205 H       1  ZINC000486710336    0.0600
     60 H60       -15.0268   -1.2320   57.2937 H       1  ZINC000486710336    0.0500
     61 H61       -16.6899   -1.7904   56.9787 H       1  ZINC000486710336    0.0600
     62 H62       -15.1871   -3.6941   57.4970 H       1  ZINC000486710336    0.1000
     63 H63       -15.8138   -3.7946   55.8389 H       1  ZINC000486710336    0.0700
@<TRIPOS>BOND
     1     1     2    1
     2     1    35    1
     3     1    36    1
     4     1    37    1
     5     2    11    1
     6     2     3    1
     7     3     4    2
     8     4     5    1
     9     4    10    1
    10     5     9    1
    11     5     6    1
    12     5    38    1
    13     6     7    1
    14     6    39    1
    15     6    40    1
    16     7     8    1
    17     7    41    1
    18     7    42    1
    19     8     9    1
    20     8    43    1
    21     8    44    1
    22     9    45    1
    23     9    46    1
    24    10    11    2
    25    10    47    1
    26    11    12    1
    27    12    13   am
    28    12    48    1
    29    13    14    2
    30    13    15    1
    31    15    16    2
    32    15    17   am
    33    17    33    1
    34    17    18    1
    35    18    19    1
    36    18    49    1
    37    18    50    1
    38    19    20    1
    39    19    21    1
    40    19    27    1
    41    21    26   ar
    42    21    22   ar
    43    22    23   ar
    44    22    51    1
    45    23    24   ar
    46    23    52    1
    47    24    25   ar
    48    24    53    1
    49    25    26   ar
    50    25    54    1
    51    26    55    1
    52    27    28    1
    53    27    33    1
    54    27    29    1
    55    29    30    1
    56    29    56    1
    57    29    57    1
    58    30    31    1
    59    30    58    1
    60    30    59    1
    61    31    32    1
    62    31    60    1
    63    31    61    1
    64    32    33    1
    65    32    62    1
    66    32    63    1
    67    33    34    1
@<TRIPOS>SUBSTRUCTURE
     1 ZINC000486710336        1 TEMP              0 ****  ****    0 ROOT


##########                                Name:    ZINC001345966764
##########                DOCK_Rotatable_Bonds:                  10
##########                         Heavy_Atoms:                  22
##########                    Molecular_Weight:             333.258
##########                DOCK_Rotatable_Bonds:                  10
##########                       Formal_Charge:           0.0099997
##########                     HBond_Acceptors:                  11
##########                        HBond_Donors:                   4
##########                         Heavy_Atoms:                  22
##########                          Grid_Score:          -30.853731
##########                     Grid_vdw_energy:          -28.768011
##########                      Grid_es_energy:           -2.085719
##########           Internal_energy_repulsive:            6.004724

@<TRIPOS>MOLECULE
ZINC001345966764
 38 38 1 0 0
SMALL
USER_CHARGES


@<TRIPOS>ATOM
      1 N1         -4.0553    1.3316   64.4561 N.3     1  ZINC001345966764   -0.8400
      2 C2         -4.2875    1.0852   65.8856 C.3     1  ZINC001345966764    0.0200
      3 C3         -5.3457    2.0600   66.4057 C.3     1  ZINC001345966764    0.2800
      4 F4         -4.8462    2.7383   67.5227 F       1  ZINC001345966764   -0.1900
      5 F5         -5.6628    2.9828   65.4031 F       1  ZINC001345966764   -0.1800
      6 C6         -6.6037    1.2839   66.8008 C.3     1  ZINC001345966764    0.0800
      7 N7         -7.5412    1.2679   65.6752 N.am    1  ZINC001345966764   -0.7000
      8 C8         -8.2106    0.1380   65.3718 C.2     1  ZINC001345966764    0.5100
      9 O9         -8.0377   -0.8655   66.0318 O.2     1  ZINC001345966764   -0.5100
     10 C10        -9.1657    0.1211   64.2224 C.2     1  ZINC001345966764    0.5100
     11 O11       -10.0656    0.9333   64.1693 O.2     1  ZINC001345966764   -0.5100
     12 N12        -9.0273   -0.7963   63.2449 N.am    1  ZINC001345966764   -0.7000
     13 C13        -9.9625   -0.8118   62.1172 C.3     1  ZINC001345966764    0.1200
     14 C14        -9.2644   -1.3878   60.8836 C.3     1  ZINC001345966764    0.0600
     15 H15        -8.2127   -1.1016   60.8753 H       1  ZINC001345966764    0.0900
     16 C16        -9.4035   -2.9260   60.8561 C.3     1  ZINC001345966764   -0.1400
     17 C17        -9.5857   -3.2598   59.3584 C.3     1  ZINC001345966764   -0.1500
     18 C18        -9.5352   -1.8837   58.6584 C.3     1  ZINC001345966764    0.0300
     19 H19        -8.5251   -1.6736   58.3069 H       1  ZINC001345966764    0.1200
     20 C20       -10.5233   -1.8435   57.4909 C.3     1  ZINC001345966764    0.4600
     21 F21       -10.4090   -3.0199   56.7425 F       1  ZINC001345966764   -0.1700
     22 F22       -11.8266   -1.7310   57.9867 F       1  ZINC001345966764   -0.1700
     23 F23       -10.2379   -0.7427   56.6760 F       1  ZINC001345966764   -0.1700
     24 O24        -9.9182   -0.9341   59.6782 O.3     1  ZINC001345966764   -0.3500
     25 H25        -4.9031    1.2026   63.9245 H       1  ZINC001345966764    0.3500
     26 H26        -3.6706    2.2522   64.3056 H       1  ZINC001345966764    0.3600
     27 H27        -4.6357    0.0619   66.0260 H       1  ZINC001345966764    0.1100
     28 H28        -3.3576    1.2312   66.4352 H       1  ZINC001345966764    0.0700
     29 H29        -6.3325    0.2612   67.0623 H       1  ZINC001345966764    0.1100
     30 H30        -7.0735    1.7658   67.6582 H       1  ZINC001345966764    0.1100
     31 H31        -7.6803    2.0703   65.1483 H       1  ZINC001345966764    0.4200
     32 H32        -8.3087   -1.4463   63.2878 H       1  ZINC001345966764    0.4200
     33 H33       -10.8245   -1.4298   62.3685 H       1  ZINC001345966764    0.1000
     34 H34       -10.2936    0.2049   61.9057 H       1  ZINC001345966764    0.0900
     35 H35        -8.5015   -3.3981   61.2455 H       1  ZINC001345966764    0.0900
     36 H36       -10.2773   -3.2408   61.4266 H       1  ZINC001345966764    0.0900
     37 H37        -8.7739   -3.8969   59.0076 H       1  ZINC001345966764    0.1000
     38 H38       -10.5496   -3.7396   59.1887 H       1  ZINC001345966764    0.0900
@<TRIPOS>BOND
     1     1     2    1
     2     1    25    1
     3     1    26    1
     4     2     3    1
     5     2    27    1
     6     2    28    1
     7     3     4    1
     8     3     5    1
     9     3     6    1
    10     6     7    1
    11     6    29    1
    12     6    30    1
    13     7     8   am
    14     7    31    1
    15     8     9    2
    16     8    10    1
    17    10    11    2
    18    10    12   am
    19    12    13    1
    20    12    32    1
    21    13    14    1
    22    13    33    1
    23    13    34    1
    24    14    15    1
    25    14    24    1
    26    14    16    1
    27    16    17    1
    28    16    35    1
    29    16    36    1
    30    17    18    1
    31    17    37    1
    32    17    38    1
    33    18    19    1
    34    18    20    1
    35    18    24    1
    36    20    21    1
    37    20    22    1
    38    20    23    1
@<TRIPOS>SUBSTRUCTURE
     1 ZINC001345966764        1 TEMP              0 ****  ****    0 ROOT


##########                                Name:    ZINC000330515179
##########                DOCK_Rotatable_Bonds:                   4
##########                         Heavy_Atoms:                  21
##########                    Molecular_Weight:             378.287
##########                DOCK_Rotatable_Bonds:                   4
##########                       Formal_Charge:           0.0200002
##########                     HBond_Acceptors:                   6
##########                        HBond_Donors:                   0
##########                         Heavy_Atoms:                  21
##########                          Grid_Score:          -30.837286
##########                     Grid_vdw_energy:          -29.750881
##########                      Grid_es_energy:           -1.086405
##########           Internal_energy_repulsive:            6.644556

@<TRIPOS>MOLECULE
ZINC000330515179
 41 42 1 0 0
SMALL
USER_CHARGES


@<TRIPOS>ATOM
      1 C1        -13.8510   -4.8387   56.0289 C.3     1  ZINC000330515179    0.0300
      2 O2        -12.9589   -5.2589   57.0632 O.3     1  ZINC000330515179   -0.3800
      3 C3        -11.7445   -4.5080   57.1238 C.3     1  ZINC000330515179    0.0700
      4 C4        -11.9996   -3.1832   57.8453 C.3     1  ZINC000330515179    0.0800
      5 H5        -12.1533   -2.3924   57.1110 H       1  ZINC000330515179    0.0800
      6 C6        -10.7919   -2.8380   58.7242 C.3     1  ZINC000330515179    0.0900
      7 N7        -11.1354   -1.6663   59.5456 N.am    1  ZINC000330515179   -1.0000
      8 S8        -10.1330   -0.3500   59.6144 S.o2    1  ZINC000330515179    2.6900
      9 O9         -8.9557   -0.7046   58.9019 O.2     1  ZINC000330515179   -0.9400
     10 O10       -10.9302    0.7792   59.2851 O.2     1  ZINC000330515179   -0.9500
     11 C11        -9.6536   -0.1469   61.2976 C.ar    1  ZINC000330515179   -0.6700
     12 C12        -9.9224    1.0395   61.9543 C.ar    1  ZINC000330515179   -0.0100
     13 C13        -9.5469    1.1992   63.2750 C.ar    1  ZINC000330515179   -0.1100
     14 C14        -8.9022    0.1715   63.9395 C.ar    1  ZINC000330515179   -0.0400
     15 Br15       -8.3888    0.3891   65.7464 Br      1  ZINC000330515179   -0.0300
     16 C16        -8.6334   -1.0154   63.2821 C.ar    1  ZINC000330515179   -0.1100
     17 C17        -9.0140   -1.1761   61.9630 C.ar    1  ZINC000330515179   -0.0100
     18 C18       -12.3958   -1.6992   60.3043 C.3     1  ZINC000330515179    0.1000
     19 C19       -13.5253   -2.0998   59.3485 C.3     1  ZINC000330515179    0.1000
     20 C20       -14.8110   -2.3308   60.1450 C.3     1  ZINC000330515179   -0.1400
     21 C21       -13.7505   -0.9832   58.3270 C.3     1  ZINC000330515179   -0.1800
     22 O22       -13.1625   -3.3036   58.6679 O.3     1  ZINC000330515179   -0.3500
     23 H23       -14.7482   -5.4574   56.0494 H       1  ZINC000330515179    0.0900
     24 H24       -14.1253   -3.7956   56.1873 H       1  ZINC000330515179    0.0400
     25 H25       -13.3601   -4.9424   55.0613 H       1  ZINC000330515179    0.0400
     26 H26       -10.9913   -5.0785   57.6672 H       1  ZINC000330515179    0.0600
     27 H27       -11.3898   -4.3087   56.1126 H       1  ZINC000330515179    0.0700
     28 H28       -10.5549   -3.6829   59.3707 H       1  ZINC000330515179    0.0900
     29 H29        -9.9336   -2.6055   58.0938 H       1  ZINC000330515179    0.1000
     30 H30       -10.4255    1.8420   61.4352 H       1  ZINC000330515179    0.1500
     31 H31        -9.7566    2.1262   63.7878 H       1  ZINC000330515179    0.1500
     32 H32        -8.1301   -1.8181   63.8005 H       1  ZINC000330515179    0.1500
     33 H33        -8.8042   -2.1028   61.4496 H       1  ZINC000330515179    0.1500
     34 H34       -12.3203   -2.4294   61.1100 H       1  ZINC000330515179    0.0900
     35 H35       -12.5996   -0.7125   60.7204 H       1  ZINC000330515179    0.1000
     36 H36       -15.0850   -1.4137   60.6664 H       1  ZINC000330515179    0.0800
     37 H37       -15.6137   -2.6156   59.4647 H       1  ZINC000330515179    0.0700
     38 H38       -14.6504   -3.1275   60.8713 H       1  ZINC000330515179    0.0700
     39 H39       -12.8347   -0.8205   57.7587 H       1  ZINC000330515179    0.0600
     40 H40       -14.5537   -1.2688   57.6477 H       1  ZINC000330515179    0.0700
     41 H41       -14.0236   -0.0649   58.8468 H       1  ZINC000330515179    0.0700
@<TRIPOS>BOND
     1     1     2    1
     2     1    23    1
     3     1    24    1
     4     1    25    1
     5     2     3    1
     6     3     4    1
     7     3    26    1
     8     3    27    1
     9     4     5    1
    10     4    22    1
    11     4     6    1
    12     6     7    1
    13     6    28    1
    14     6    29    1
    15     7     8   am
    16     7    18    1
    17     8     9    2
    18     8    10    2
    19     8    11    1
    20    11    17   ar
    21    11    12   ar
    22    12    13   ar
    23    12    30    1
    24    13    14   ar
    25    13    31    1
    26    14    15    1
    27    14    16   ar
    28    16    17   ar
    29    16    32    1
    30    17    33    1
    31    18    19    1
    32    18    34    1
    33    18    35    1
    34    19    20    1
    35    19    21    1
    36    19    22    1
    37    20    36    1
    38    20    37    1
    39    20    38    1
    40    21    39    1
    41    21    40    1
    42    21    41    1
@<TRIPOS>SUBSTRUCTURE
     1 ZINC000330515179        1 TEMP              0 ****  ****    0 ROOT


##########                                Name:    ZINC000929592477
##########                DOCK_Rotatable_Bonds:                   7
##########                         Heavy_Atoms:                  28
##########                    Molecular_Weight:             399.517
##########                DOCK_Rotatable_Bonds:                   7
##########                       Formal_Charge:         -8.9407e-08
##########                     HBond_Acceptors:                   8
##########                        HBond_Donors:                   3
##########                         Heavy_Atoms:                  28
##########                          Grid_Score:          -30.818716
##########                     Grid_vdw_energy:          -28.447023
##########                      Grid_es_energy:           -2.371692
##########           Internal_energy_repulsive:           16.818253

@<TRIPOS>MOLECULE
ZINC000929592477
 53 56 1 0 0
SMALL
USER_CHARGES


@<TRIPOS>ATOM
      1 O1         -7.1560    1.9337   50.6940 O.2     1  ZINC000929592477   -0.5700
      2 C2         -6.7562    1.5370   51.7717 C.2     1  ZINC000929592477    0.7100
      3 N3         -5.4330    1.4895   52.0236 N.am    1  ZINC000929592477   -0.6800
      4 C4         -4.5174    1.8922   51.0413 C.ar    1  ZINC000929592477    0.1600
      5 C5         -3.5297    2.8177   51.3507 C.ar    1  ZINC000929592477   -0.1300
      6 C6         -2.6282    3.2149   50.3836 C.ar    1  ZINC000929592477   -0.0800
      7 C7         -2.7091    2.6880   49.1005 C.ar    1  ZINC000929592477   -0.1000
      8 S8         -1.5583    3.1939   47.8659 S.3     1  ZINC000929592477   -0.1100
      9 C9         -1.8136    1.9757   46.5463 C.3     1  ZINC000929592477   -0.0800
     10 C10        -0.9174    2.3025   45.3260 C.3     1  ZINC000929592477   -0.1200
     11 C11        -0.7910    0.9309   44.6177 C.3     1  ZINC000929592477   -0.1200
     12 C12        -0.6892   -0.0844   45.7747 C.3     1  ZINC000929592477   -0.1200
     13 C13        -1.3395    0.5799   47.0009 C.3     1  ZINC000929592477   -0.1000
     14 C14        -3.6972    1.7615   48.7914 C.ar    1  ZINC000929592477   -0.1200
     15 C15        -4.5950    1.3610   49.7607 C.ar    1  ZINC000929592477   -0.1000
     16 N16        -7.6363    1.1498   52.7161 N.am    1  ZINC000929592477   -0.7300
     17 C17        -9.0746    1.2015   52.4422 C.3     1  ZINC000929592477    0.1500
     18 H18        -9.2586    1.4902   51.4074 H       1  ZINC000929592477    0.1200
     19 C19        -9.7847    2.1760   53.4186 C.3     1  ZINC000929592477   -0.1400
     20 C20        -9.9864    1.2767   54.6637 C.3     1  ZINC000929592477    0.1100
     21 N21       -10.2963   -0.0577   54.1192 N.pl3   1  ZINC000929592477   -0.6000
     22 C22       -10.9937   -1.0518   54.7748 C.2     1  ZINC000929592477    0.4600
     23 C23       -11.8127   -0.7382   55.8466 C.2     1  ZINC000929592477   -0.4000
     24 C24       -12.5036   -1.7774   56.4850 C.2     1  ZINC000929592477    0.5300
     25 O25       -13.2365   -1.5464   57.4336 O.2     1  ZINC000929592477   -0.5500
     26 N26       -12.3432   -3.0380   56.0309 N.am    1  ZINC000929592477   -0.6400
     27 C27       -11.5325   -3.2854   54.9829 C.2     1  ZINC000929592477    0.4100
     28 N28       -10.8870   -2.3286   54.3746 N.2     1  ZINC000929592477   -0.5700
     29 C29        -9.7394   -0.1553   52.7569 C.3     1  ZINC000929592477    0.1100
     30 H30        -5.1142    1.1768   52.8847 H       1  ZINC000929592477    0.4100
     31 H31        -3.4670    3.2274   52.3480 H       1  ZINC000929592477    0.1300
     32 H32        -1.8605    3.9354   50.6241 H       1  ZINC000929592477    0.1300
     33 H33        -2.8632    1.9456   46.2541 H       1  ZINC000929592477    0.1000
     34 H34        -1.4017    3.0304   44.6750 H       1  ZINC000929592477    0.0700
     35 H35         0.0596    2.6618   45.6494 H       1  ZINC000929592477    0.0800
     36 H36        -1.6749    0.7315   44.0118 H       1  ZINC000929592477    0.0700
     37 H37         0.1088    0.9004   44.0032 H       1  ZINC000929592477    0.0700
     38 H38        -1.2246   -0.9984   45.5175 H       1  ZINC000929592477    0.0700
     39 H39         0.3567   -0.3097   45.9828 H       1  ZINC000929592477    0.0700
     40 H40        -0.6091    0.6770   47.8042 H       1  ZINC000929592477    0.0700
     41 H41        -2.1903   -0.0117   47.3388 H       1  ZINC000929592477    0.0800
     42 H42        -3.7604    1.3515   47.7943 H       1  ZINC000929592477    0.1300
     43 H43        -5.3630    0.6406   49.5206 H       1  ZINC000929592477    0.1400
     44 H44        -7.3175    0.8370   53.5771 H       1  ZINC000929592477    0.4000
     45 H45        -9.1471    3.0289   53.6518 H       1  ZINC000929592477    0.0900
     46 H46       -10.7422    2.5049   53.0148 H       1  ZINC000929592477    0.0900
     47 H47        -9.0734    1.2413   55.2580 H       1  ZINC000929592477    0.0700
     48 H48       -10.8179    1.6432   55.2656 H       1  ZINC000929592477    0.0800
     49 H49       -11.9164    0.2829   56.1828 H       1  ZINC000929592477    0.1500
     50 H50       -12.8133   -3.7695   56.4610 H       1  ZINC000929592477    0.4200
     51 H51       -11.4175   -4.3013   54.6350 H       1  ZINC000929592477    0.2100
     52 H52       -10.5387   -0.3537   52.0430 H       1  ZINC000929592477    0.0900
     53 H53        -8.9967   -0.9520   52.7162 H       1  ZINC000929592477    0.0800
@<TRIPOS>BOND
     1     1     2    2
     2     2     3   am
     3     2    16   am
     4     3     4    1
     5     3    30    1
     6     4    15   ar
     7     4     5   ar
     8     5     6   ar
     9     5    31    1
    10     6     7   ar
    11     6    32    1
    12     7     8    1
    13     7    14   ar
    14     8     9    1
    15     9    13    1
    16     9    10    1
    17     9    33    1
    18    10    11    1
    19    10    34    1
    20    10    35    1
    21    11    12    1
    22    11    36    1
    23    11    37    1
    24    12    13    1
    25    12    38    1
    26    12    39    1
    27    13    40    1
    28    13    41    1
    29    14    15   ar
    30    14    42    1
    31    15    43    1
    32    16    17    1
    33    16    44    1
    34    17    18    1
    35    17    29    1
    36    17    19    1
    37    19    20    1
    38    19    45    1
    39    19    46    1
    40    20    21    1
    41    20    47    1
    42    20    48    1
    43    21    22    1
    44    21    29    1
    45    22    28    1
    46    22    23    2
    47    23    24    1
    48    23    49    1
    49    24    25    2
    50    24    26   am
    51    26    27    1
    52    26    50    1
    53    27    28    2
    54    27    51    1
    55    29    52    1
    56    29    53    1
@<TRIPOS>SUBSTRUCTURE
     1 ZINC000929592477        1 TEMP              0 ****  ****    0 ROOT


##########                                Name:    ZINC001162683355
##########                DOCK_Rotatable_Bonds:                   5
##########                         Heavy_Atoms:                  25
##########                    Molecular_Weight:             336.437
##########                DOCK_Rotatable_Bonds:                   5
##########                       Formal_Charge:          -0.0100002
##########                     HBond_Acceptors:                   5
##########                        HBond_Donors:                   1
##########                         Heavy_Atoms:                  25
##########                          Grid_Score:          -30.808060
##########                     Grid_vdw_energy:          -30.238955
##########                      Grid_es_energy:           -0.569104
##########           Internal_energy_repulsive:            7.363162

@<TRIPOS>MOLECULE
ZINC001162683355
 49 52 1 0 0
SMALL
USER_CHARGES


@<TRIPOS>ATOM
      1 C1        -15.1274   -3.5265   58.5491 C.3     1  ZINC001162683355    0.0200
      2 N2        -14.6890   -3.9140   57.2017 N.3     1  ZINC001162683355   -0.5400
      3 C3        -13.8488   -5.1195   57.2473 C.3     1  ZINC001162683355    0.0100
      4 C4        -13.4646   -5.5215   55.8208 C.3     1  ZINC001162683355    0.0600
      5 O5        -12.8040   -4.4249   55.1833 O.3     1  ZINC001162683355   -0.3800
      6 C6        -13.5940   -3.2343   55.1210 C.3     1  ZINC001162683355    0.0800
      7 H7        -14.4963   -3.4263   54.5402 H       1  ZINC001162683355    0.0700
      8 C8        -12.7856   -2.1190   54.4553 C.3     1  ZINC001162683355    0.1500
      9 N9        -11.4724   -2.0181   55.0967 N.pl3   1  ZINC001162683355   -0.7300
     10 C10       -10.5702   -1.0437   54.6842 C.ar    1  ZINC001162683355    0.4300
     11 C11        -9.8444   -0.3193   55.6327 C.ar    1  ZINC001162683355   -0.0100
     12 C12        -8.9399    0.6590   55.1809 C.ar    1  ZINC001162683355   -0.0400
     13 C13        -8.8051    0.8650   53.8013 C.ar    1  ZINC001162683355   -0.1800
     14 C14        -9.5549    0.1108   52.9464 C.ar    1  ZINC001162683355    0.1000
     15 N15       -10.4005   -0.8047   53.3943 N.ar    1  ZINC001162683355   -0.5400
     16 C16        -8.3386    1.2395   56.3777 C.2     1  ZINC001162683355   -0.2200
     17 C17        -8.8887    0.6163   57.4351 C.2     1  ZINC001162683355    0.0800
     18 N18        -9.7857   -0.3208   57.0077 N.pl3   1  ZINC001162683355   -0.4600
     19 C19       -10.5725   -1.1934   57.8828 C.3     1  ZINC001162683355    0.1500
     20 C20       -10.1588   -0.9734   59.3151 C.ar    1  ZINC001162683355   -0.1100
     21 C21       -10.6563    0.1066   60.0200 C.ar    1  ZINC001162683355   -0.1000
     22 C22       -10.2802    0.3059   61.3353 C.ar    1  ZINC001162683355   -0.1200
     23 C23        -9.3995   -0.5695   61.9426 C.ar    1  ZINC001162683355   -0.1100
     24 C24        -8.8980   -1.6465   61.2360 C.ar    1  ZINC001162683355   -0.1200
     25 C25        -9.2775   -1.8483   59.9221 C.ar    1  ZINC001162683355   -0.1000
     26 C26       -13.9796   -2.8092   56.5404 C.3     1  ZINC001162683355    0.0300
     27 H27       -14.2592   -3.2536   59.1491 H       1  ZINC001162683355    0.0300
     28 H28       -15.8037   -2.6745   58.4802 H       1  ZINC001162683355    0.0700
     29 H29       -15.6444   -4.3639   59.0179 H       1  ZINC001162683355    0.0700
     30 H30       -14.4029   -5.9317   57.7176 H       1  ZINC001162683355    0.0900
     31 H31       -12.9464   -4.9126   57.8226 H       1  ZINC001162683355    0.0500
     32 H32       -14.3635   -5.7801   55.2610 H       1  ZINC001162683355    0.0600
     33 H33       -12.7953   -6.3812   55.8521 H       1  ZINC001162683355    0.1000
     34 H34       -13.3158   -1.1726   54.5622 H       1  ZINC001162683355    0.0700
     35 H35       -12.6567   -2.3457   53.3969 H       1  ZINC001162683355    0.0800
     36 H36       -11.2322   -2.6311   55.8090 H       1  ZINC001162683355    0.4000
     37 H37        -8.1193    1.6078   53.4212 H       1  ZINC001162683355    0.1300
     38 H38        -9.4564    0.2635   51.8818 H       1  ZINC001162683355    0.1500
     39 H39        -7.5966    2.0237   56.4085 H       1  ZINC001162683355    0.1500
     40 H40        -8.6543    0.8244   58.4686 H       1  ZINC001162683355    0.1700
     41 H41       -10.3982   -2.2343   57.6100 H       1  ZINC001162683355    0.0900
     42 H42       -11.6315   -0.9609   57.7706 H       1  ZINC001162683355    0.0900
     43 H43       -11.3414    0.7927   59.5444 H       1  ZINC001162683355    0.1200
     44 H44       -10.6723    1.1472   61.8875 H       1  ZINC001162683355    0.1300
     45 H45        -9.1037   -0.4122   62.9693 H       1  ZINC001162683355    0.1300
     46 H46        -8.2100   -2.3305   61.7105 H       1  ZINC001162683355    0.1300
     47 H47        -8.8855   -2.6898   59.3700 H       1  ZINC001162683355    0.1200
     48 H48       -13.0793   -2.5654   57.1044 H       1  ZINC001162683355    0.0500
     49 H49       -14.6291   -1.9351   56.4947 H       1  ZINC001162683355    0.0900
@<TRIPOS>BOND
     1     1     2    1
     2     1    27    1
     3     1    28    1
     4     1    29    1
     5     2    26    1
     6     2     3    1
     7     3     4    1
     8     3    30    1
     9     3    31    1
    10     4     5    1
    11     4    32    1
    12     4    33    1
    13     5     6    1
    14     6     7    1
    15     6     8    1
    16     6    26    1
    17     8     9    1
    18     8    34    1
    19     8    35    1
    20     9    10    1
    21     9    36    1
    22    10    15   ar
    23    10    11   ar
    24    11    18    1
    25    11    12   ar
    26    12    13   ar
    27    12    16    1
    28    13    14   ar
    29    13    37    1
    30    14    15   ar
    31    14    38    1
    32    16    17    2
    33    16    39    1
    34    17    18    1
    35    17    40    1
    36    18    19    1
    37    19    20    1
    38    19    41    1
    39    19    42    1
    40    20    25   ar
    41    20    21   ar
    42    21    22   ar
    43    21    43    1
    44    22    23   ar
    45    22    44    1
    46    23    24   ar
    47    23    45    1
    48    24    25   ar
    49    24    46    1
    50    25    47    1
    51    26    48    1
    52    26    49    1
@<TRIPOS>SUBSTRUCTURE
     1 ZINC001162683355        1 TEMP              0 ****  ****    0 ROOT


##########                                Name:    ZINC000288921983
##########                DOCK_Rotatable_Bonds:                   6
##########                         Heavy_Atoms:                  26
##########                    Molecular_Weight:             356.428
##########                DOCK_Rotatable_Bonds:                   6
##########                       Formal_Charge:           0.0199997
##########                     HBond_Acceptors:                   8
##########                        HBond_Donors:                   1
##########                         Heavy_Atoms:                  26
##########                          Grid_Score:          -30.778807
##########                     Grid_vdw_energy:          -30.347946
##########                      Grid_es_energy:           -0.430860
##########           Internal_energy_repulsive:           59.137081

@<TRIPOS>MOLECULE
ZINC000288921983
 50 53 1 0 0
SMALL
USER_CHARGES


@<TRIPOS>ATOM
      1 C1        -16.2994    0.4127   64.3846 C.3     1  ZINC000288921983   -0.1400
      2 C2        -14.8571    0.4350   63.8747 C.3     1  ZINC000288921983   -0.0500
      3 C3        -14.7285   -0.4880   62.6904 C.ar    1  ZINC000288921983    0.3000
      4 N4        -15.1101   -0.0620   61.5030 N.ar    1  ZINC000288921983   -0.5000
      5 C5        -15.0133   -0.8414   60.4386 C.ar    1  ZINC000288921983    0.1300
      6 C6        -14.5000   -2.1270   60.5873 C.ar    1  ZINC000288921983    0.0500
      7 N7        -14.3800   -2.9842   59.4869 N.am    1  ZINC000288921983   -0.6700
      8 C8        -13.1961   -3.1080   58.8551 C.2     1  ZINC000288921983    0.7100
      9 O9        -12.2321   -2.4751   59.2405 O.2     1  ZINC000288921983   -0.5500
     10 N10       -13.0806   -3.9333   57.7958 N.am    1  ZINC000288921983   -0.6200
     11 C11       -14.2364   -4.7045   57.3182 C.3     1  ZINC000288921983    0.1100
     12 C12       -14.4274   -4.4316   55.8229 C.3     1  ZINC000288921983   -0.1400
     13 C13       -13.1219   -4.7322   55.0828 C.3     1  ZINC000288921983   -0.1200
     14 C14       -12.0149   -3.8131   55.6040 C.3     1  ZINC000288921983   -0.1300
     15 C15       -11.7980   -4.0743   57.0931 C.3     1  ZINC000288921983    0.2700
     16 H16       -11.4196   -5.0866   57.2351 H       1  ZINC000288921983    0.1100
     17 C17       -10.8047   -3.0821   57.6407 C.2     1  ZINC000288921983    0.1700
     18 N18        -9.8648   -3.3307   58.5077 N.2     1  ZINC000288921983   -0.2500
     19 N19        -9.2067   -2.2509   58.7454 N.2     1  ZINC000288921983   -0.2700
     20 C20        -9.7044   -1.2767   58.0380 C.2     1  ZINC000288921983    0.1800
     21 C21        -9.2231    0.1513   58.0239 C.3     1  ZINC000288921983   -0.0300
     22 C22        -8.9941    0.7102   56.6097 C.3     1  ZINC000288921983   -0.1200
     23 C23       -10.4673    1.1509   56.6304 C.3     1  ZINC000288921983   -0.1400
     24 C24       -10.3541    1.1838   58.1637 C.3     1  ZINC000288921983   -0.1200
     25 O25       -10.7223   -1.7799   57.3198 O.3     1  ZINC000288921983   -0.2200
     26 C26       -14.1086   -2.5375   61.8587 C.ar    1  ZINC000288921983    0.1600
     27 N27       -14.2327   -1.6956   62.8713 N.ar    1  ZINC000288921983   -0.5000
     28 H28       -16.3924    1.0803   65.2412 H       1  ZINC000288921983    0.0700
     29 H29       -16.9703    0.7435   63.5916 H       1  ZINC000288921983    0.0600
     30 H30       -16.5632   -0.6016   64.6841 H       1  ZINC000288921983    0.0600
     31 H31       -14.5932    1.4493   63.5752 H       1  ZINC000288921983    0.0900
     32 H32       -14.1862    0.1042   64.6676 H       1  ZINC000288921983    0.0900
     33 H33       -15.3283   -0.4858   59.4687 H       1  ZINC000288921983    0.1700
     34 H34       -15.1491   -3.4891   59.1794 H       1  ZINC000288921983    0.4100
     35 H35       -14.0563   -5.7680   57.4754 H       1  ZINC000288921983    0.0800
     36 H36       -15.1298   -4.3986   57.8625 H       1  ZINC000288921983    0.0800
     37 H37       -15.2209   -5.0703   55.4350 H       1  ZINC000288921983    0.0900
     38 H38       -14.6967   -3.3858   55.6755 H       1  ZINC000288921983    0.0700
     39 H39       -12.8402   -5.7716   55.2509 H       1  ZINC000288921983    0.0700
     40 H40       -13.2624   -4.5623   54.0153 H       1  ZINC000288921983    0.0800
     41 H41       -11.0913   -4.0116   55.0602 H       1  ZINC000288921983    0.0900
     42 H42       -12.3069   -2.7730   55.4586 H       1  ZINC000288921983    0.0900
     43 H43        -8.3884    0.3233   58.7033 H       1  ZINC000288921983    0.1000
     44 H44        -8.2901    1.5417   56.5776 H       1  ZINC000288921983    0.1000
     45 H45        -8.7784   -0.0574   55.8665 H       1  ZINC000288921983    0.0800
     46 H46       -10.6362    2.1307   56.1839 H       1  ZINC000288921983    0.0700
     47 H47       -11.1555    0.3912   56.2596 H       1  ZINC000288921983    0.1000
     48 H48       -11.2363    0.7987   58.6750 H       1  ZINC000288921983    0.0700
     49 H49       -10.0219    2.1449   58.5564 H       1  ZINC000288921983    0.1000
     50 H50       -13.7059   -3.5273   62.0153 H       1  ZINC000288921983    0.1800
@<TRIPOS>BOND
     1     1     2    1
     2     1    28    1
     3     1    29    1
     4     1    30    1
     5     2     3    1
     6     2    31    1
     7     2    32    1
     8     3    27   ar
     9     3     4   ar
    10     4     5   ar
    11     5     6   ar
    12     5    33    1
    13     6     7    1
    14     6    26   ar
    15     7     8   am
    16     7    34    1
    17     8     9    2
    18     8    10   am
    19    10    15    1
    20    10    11    1
    21    11    12    1
    22    11    35    1
    23    11    36    1
    24    12    13    1
    25    12    37    1
    26    12    38    1
    27    13    14    1
    28    13    39    1
    29    13    40    1
    30    14    15    1
    31    14    41    1
    32    14    42    1
    33    15    16    1
    34    15    17    1
    35    17    25    1
    36    17    18    2
    37    18    19    1
    38    19    20    2
    39    20    21    1
    40    20    25    1
    41    21    24    1
    42    21    22    1
    43    21    43    1
    44    22    23    1
    45    22    44    1
    46    22    45    1
    47    23    24    1
    48    23    46    1
    49    23    47    1
    50    24    48    1
    51    24    49    1
    52    26    27   ar
    53    26    50    1
@<TRIPOS>SUBSTRUCTURE
     1 ZINC000288921983        1 TEMP              0 ****  ****    0 ROOT


##########                                Name:      oleObject5.pdb
##########                DOCK_Rotatable_Bonds:                   5
##########                         Heavy_Atoms:                  24
##########                    Molecular_Weight:             323.438
##########                DOCK_Rotatable_Bonds:                   5
##########                       Formal_Charge:         0.000200074
##########                     HBond_Acceptors:                   4
##########                        HBond_Donors:                   2
##########                         Heavy_Atoms:                  24
##########                          Grid_Score:          -30.764606
##########                     Grid_vdw_energy:          -30.308998
##########                      Grid_es_energy:           -0.455608
##########           Internal_energy_repulsive:           13.182220

@<TRIPOS>MOLECULE
oleObject5.pdb
 49 51 1 0 0
SMALL
NO_CHARGES


@<TRIPOS>ATOM
      1 C         -10.1461   -0.0977   55.0419 C.3     1  UNL        -0.0394
      2 C         -10.7973   -1.4364   54.7081 C.ar    1  UNL        -0.0456
      3 C         -10.6510   -1.9316   53.3973 C.ar    1  UNL        -0.0590
      4 C         -11.2414   -3.1445   53.0157 C.ar    1  UNL        -0.0620
      5 C         -11.9926   -3.8748   53.9445 C.ar    1  UNL        -0.0619
      6 C         -12.1478   -3.3914   55.2514 C.ar    1  UNL        -0.0565
      7 C         -11.5513   -2.1778   55.6551 C.ar    1  UNL        -0.0188
      8 C         -11.7864   -1.6925   57.0920 C.3     1  UNL         0.0906
      9 N         -13.1861   -1.9513   57.4733 N.am    1  UNL        -0.3025
     10 C         -14.0372   -0.9633   57.9346 C.2     1  UNL         0.2156
     11 O         -13.7363    0.2175   57.9004 O.2     1  UNL        -0.2774
     12 C         -15.4536   -1.4662   58.2723 C.3     1  UNL         0.0382
     13 C         -15.6325   -1.6807   59.7992 C.3     1  UNL        -0.0292
     14 C         -14.8977   -2.9475   60.2890 C.3     1  UNL        -0.0041
     15 N         -15.3520   -4.1346   59.5446 N.4     1  UNL        -0.3167
     16 C         -15.1488   -4.0255   58.0890 C.3     1  UNL        -0.0041
     17 C         -15.8348   -2.7635   57.5076 C.3     1  UNL        -0.0292
     18 C         -10.7751   -2.3060   58.0757 C.ar    1  UNL         0.0681
     19 N         -10.6086   -3.6496   58.0144 N.ar    1  UNL        -0.2587
     20 C          -9.7308   -4.2456   58.8430 C.ar    1  UNL         0.0272
     21 C          -8.9672   -3.5306   59.7772 C.ar    1  UNL        -0.0435
     22 C          -9.1247   -2.1393   59.8486 C.ar    1  UNL        -0.0559
     23 C         -10.0407   -1.5063   58.9871 C.ar    1  UNL        -0.0272
     24 C         -10.2053    0.0067   59.0584 C.3     1  UNL        -0.0379
     25 H          -9.4945    0.2475   54.2295 H       1  UNL         0.0280
     26 H          -9.5242   -0.1588   55.9418 H       1  UNL         0.0280
     27 H         -10.9015    0.6798   55.1985 H       1  UNL         0.0280
     28 H         -10.0789   -1.3699   52.6639 H       1  UNL         0.0626
     29 H         -11.1214   -3.5135   52.0012 H       1  UNL         0.0623
     30 H         -12.4581   -4.8117   53.6521 H       1  UNL         0.0623
     31 H         -12.7448   -3.9656   55.9536 H       1  UNL         0.0627
     32 H         -11.6443   -0.6088   57.1398 H       1  UNL         0.0624
     33 H         -13.6190   -2.7516   57.0312 H       1  UNL         0.1504
     34 H         -16.1453   -0.6746   57.9559 H       1  UNL         0.0402
     35 H         -16.7021   -1.7849   60.0227 H       1  UNL         0.0288
     36 H         -15.2822   -0.8062   60.3615 H       1  UNL         0.0288
     37 H         -15.0867   -3.0875   61.3607 H       1  UNL         0.0428
     38 H         -13.8160   -2.8162   60.1544 H       1  UNL         0.0428
     39 H         -16.3442   -4.2781   59.7293 H       1  UNL         0.1222
     40 H         -15.5506   -4.9179   57.5926 H       1  UNL         0.0428
     41 H         -14.0733   -3.9893   57.8755 H       1  UNL         0.0428
     42 H         -16.9221   -2.9009   57.5681 H       1  UNL         0.0288
     43 H         -15.5917   -2.6618   56.4421 H       1  UNL         0.0288
     44 H          -9.6376   -5.3272   58.7546 H       1  UNL         0.0840
     45 H          -8.2677   -4.0443   60.4299 H       1  UNL         0.0639
     46 H          -8.5423   -1.5628   60.5618 H       1  UNL         0.0627
     47 H          -9.5532    0.4486   59.8221 H       1  UNL         0.0280
     48 H         -11.2363    0.2809   59.3132 H       1  UNL         0.0280
     49 H          -9.9493    0.4768   58.1012 H       1  UNL         0.0280
@<TRIPOS>BOND
     1     1     2    1
     2     1    25    1
     3     1    26    1
     4     1    27    1
     5     2     3   ar
     6     2     7   ar
     7     3     4   ar
     8     3    28    1
     9     4     5   ar
    10     4    29    1
    11     5     6   ar
    12     5    30    1
    13     6     7   ar
    14     6    31    1
    15     7     8    1
    16     8     9    1
    17     8    18    1
    18     8    32    1
    19     9    10   am
    20     9    33    1
    21    10    11    2
    22    10    12    1
    23    12    13    1
    24    12    17    1
    25    12    34    1
    26    13    14    1
    27    13    35    1
    28    13    36    1
    29    14    15    1
    30    14    37    1
    31    14    38    1
    32    15    16    1
    33    15    39    1
    34    16    17    1
    35    16    40    1
    36    16    41    1
    37    17    42    1
    38    17    43    1
    39    18    19   ar
    40    18    23   ar
    41    19    20   ar
    42    20    21   ar
    43    20    44    1
    44    21    22   ar
    45    21    45    1
    46    22    23   ar
    47    22    46    1
    48    23    24    1
    49    24    47    1
    50    24    48    1
    51    24    49    1
@<TRIPOS>SUBSTRUCTURE
     1 UNL         1 TEMP              0 ****  ****    0 ROOT


##########                                Name:    ZINC000437443367
##########                DOCK_Rotatable_Bonds:                   8
##########                         Heavy_Atoms:                  24
##########                    Molecular_Weight:             334.434
##########                DOCK_Rotatable_Bonds:                   8
##########                       Formal_Charge:          -0.0500003
##########                     HBond_Acceptors:                   5
##########                        HBond_Donors:                   1
##########                         Heavy_Atoms:                  24
##########                          Grid_Score:          -30.762053
##########                     Grid_vdw_energy:          -30.040651
##########                      Grid_es_energy:           -0.721402
##########           Internal_energy_repulsive:           29.640287

@<TRIPOS>MOLECULE
ZINC000437443367
 51 52 1 0 0
SMALL
USER_CHARGES


@<TRIPOS>ATOM
      1 C1         -8.2817    0.0048   67.2206 C.3     1  ZINC000437443367   -0.1200
      2 C2         -8.7009    0.5120   65.8649 C.ar    1  ZINC000437443367   -0.1000
      3 C3         -8.7348   -0.3492   64.7863 C.ar    1  ZINC000437443367   -0.1200
      4 C4         -9.1213    0.1190   63.5366 C.ar    1  ZINC000437443367    0.1400
      5 N5         -9.1569   -0.7514   62.4431 N.am    1  ZINC000437443367   -0.6400
      6 C6        -10.3378   -1.0856   61.8860 C.2     1  ZINC000437443367    0.5000
      7 O7        -11.3704   -0.6309   62.3335 O.2     1  ZINC000437443367   -0.4800
      8 C8        -10.3757   -2.0154   60.7178 C.2     1  ZINC000437443367    0.5100
      9 O9        -10.3815   -3.2156   60.8975 O.2     1  ZINC000437443367   -0.5200
     10 N10       -10.4036   -1.5214   59.4640 N.am    1  ZINC000437443367   -0.5700
     11 C11       -10.4408   -2.4334   58.3181 C.3     1  ZINC000437443367    0.0900
     12 C12       -11.8762   -2.9142   58.0953 C.3     1  ZINC000437443367   -0.1200
     13 C13       -11.8897   -3.9950   57.0125 C.3     1  ZINC000437443367   -0.0900
     14 C14       -13.3141   -4.5263   56.8400 C.3     1  ZINC000437443367   -0.1400
     15 C15       -11.4044   -3.3980   55.6900 C.3     1  ZINC000437443367   -0.1500
     16 C16       -10.3967   -0.0726   59.2474 C.3     1  ZINC000437443367    0.1300
     17 C17        -9.5483    0.2719   58.0058 C.3     1  ZINC000437443367   -0.1300
     18 C18       -10.5817    0.3776   56.8569 C.3     1  ZINC000437443367   -0.1300
     19 C19       -11.7928    1.0524   57.5477 C.3     1  ZINC000437443367   -0.1200
     20 C20       -11.8238    0.4236   58.9560 C.3     1  ZINC000437443367   -0.1400
     21 C21        -9.4728    1.4531   63.3754 C.ar    1  ZINC000437443367   -0.1100
     22 C22        -9.4374    2.3110   64.4572 C.ar    1  ZINC000437443367   -0.1300
     23 C23        -9.0573    1.8408   65.7030 C.ar    1  ZINC000437443367    0.0800
     24 F24        -9.0233    2.6817   66.7597 F       1  ZINC000437443367   -0.1400
     25 H25        -9.1577   -0.3536   67.7612 H       1  ZINC000437443367    0.0800
     26 H26        -7.5707   -0.8123   67.0988 H       1  ZINC000437443367    0.0700
     27 H27        -7.8137    0.8131   67.7822 H       1  ZINC000437443367    0.0700
     28 H28        -8.4608   -1.3861   64.9138 H       1  ZINC000437443367    0.1400
     29 H29        -8.3318   -1.1146   62.0854 H       1  ZINC000437443367    0.4200
     30 H30       -10.0899   -1.9122   57.4275 H       1  ZINC000437443367    0.0900
     31 H31        -9.7970   -3.2906   58.5149 H       1  ZINC000437443367    0.1000
     32 H32       -12.2698   -3.3259   59.0247 H       1  ZINC000437443367    0.0700
     33 H33       -12.4954   -2.0748   57.7787 H       1  ZINC000437443367    0.0600
     34 H34       -11.2304   -4.8117   57.3062 H       1  ZINC000437443367    0.0600
     35 H35       -13.9734   -3.7095   56.5464 H       1  ZINC000437443367    0.0600
     36 H36       -13.3237   -5.2962   56.0686 H       1  ZINC000437443367    0.0400
     37 H37       -13.6598   -4.9516   57.7822 H       1  ZINC000437443367    0.0600
     38 H38       -10.3896   -3.0195   55.8129 H       1  ZINC000437443367    0.0500
     39 H39       -11.4140   -4.1680   54.9186 H       1  ZINC000437443367    0.0500
     40 H40       -12.0637   -2.5812   55.3964 H       1  ZINC000437443367    0.0500
     41 H41        -9.9971    0.4342   60.1258 H       1  ZINC000437443367    0.1000
     42 H42        -9.0355    1.2234   58.1462 H       1  ZINC000437443367    0.0800
     43 H43        -8.8308   -0.5228   57.8016 H       1  ZINC000437443367    0.0700
     44 H44       -10.1997    1.0027   56.0499 H       1  ZINC000437443367    0.0700
     45 H45       -10.8502   -0.6118   56.4866 H       1  ZINC000437443367    0.0700
     46 H46       -11.6425    2.1299   57.6142 H       1  ZINC000437443367    0.0700
     47 H47       -12.7134    0.8272   57.0090 H       1  ZINC000437443367    0.0700
     48 H48       -12.5215   -0.4135   58.9759 H       1  ZINC000437443367    0.0800
     49 H49       -12.1166    1.1719   59.6926 H       1  ZINC000437443367    0.0700
     50 H50        -9.7733    1.8193   62.4049 H       1  ZINC000437443367    0.1600
     51 H51        -9.7106    3.3484   64.3324 H       1  ZINC000437443367    0.1400
@<TRIPOS>BOND
     1     1     2    1
     2     1    25    1
     3     1    26    1
     4     1    27    1
     5     2    23   ar
     6     2     3   ar
     7     3     4   ar
     8     3    28    1
     9     4     5    1
    10     4    21   ar
    11     5     6   am
    12     5    29    1
    13     6     7    2
    14     6     8    1
    15     8     9    2
    16     8    10   am
    17    10    11    1
    18    10    16    1
    19    11    12    1
    20    11    30    1
    21    11    31    1
    22    12    13    1
    23    12    32    1
    24    12    33    1
    25    13    14    1
    26    13    15    1
    27    13    34    1
    28    14    35    1
    29    14    36    1
    30    14    37    1
    31    15    38    1
    32    15    39    1
    33    15    40    1
    34    16    20    1
    35    16    17    1
    36    16    41    1
    37    17    18    1
    38    17    42    1
    39    17    43    1
    40    18    19    1
    41    18    44    1
    42    18    45    1
    43    19    20    1
    44    19    46    1
    45    19    47    1
    46    20    48    1
    47    20    49    1
    48    21    22   ar
    49    21    50    1
    50    22    23   ar
    51    22    51    1
    52    23    24    1
@<TRIPOS>SUBSTRUCTURE
     1 ZINC000437443367        1 TEMP              0 ****  ****    0 ROOT


##########                                Name:    ZINC000291574087
##########                DOCK_Rotatable_Bonds:                   8
##########                         Heavy_Atoms:                  23
##########                    Molecular_Weight:             387.249
##########                DOCK_Rotatable_Bonds:                   8
##########                       Formal_Charge:          -0.0400007
##########                     HBond_Acceptors:                   6
##########                        HBond_Donors:                   2
##########                         Heavy_Atoms:                  23
##########                          Grid_Score:          -30.754995
##########                     Grid_vdw_energy:          -30.903168
##########                      Grid_es_energy:            0.148173
##########           Internal_energy_repulsive:           21.235561

@<TRIPOS>MOLECULE
ZINC000291574087
 43 44 1 0 0
SMALL
USER_CHARGES


@<TRIPOS>ATOM
      1 C1        -11.8707   -3.9028   53.9278 C.3     1  ZINC000291574087    0.0200
      2 O2        -12.5786   -4.5677   54.9762 O.3     1  ZINC000291574087   -0.3700
      3 C3        -12.7287   -3.7858   56.1629 C.3     1  ZINC000291574087    0.1400
      4 C4        -13.7651   -2.6865   55.9216 C.3     1  ZINC000291574087   -0.1500
      5 C5        -11.3860   -3.1497   56.5278 C.3     1  ZINC000291574087    0.0900
      6 N6        -11.4465   -2.6331   57.8974 N.am    1  ZINC000291574087   -0.6900
      7 C7        -10.3762   -2.0119   58.4313 C.2     1  ZINC000291574087    0.5100
      8 O8         -9.3618   -1.8818   57.7780 O.2     1  ZINC000291574087   -0.5100
      9 C9        -10.4386   -1.4836   59.8267 C.2     1  ZINC000291574087    0.5100
     10 O10       -11.3815   -1.7608   60.5391 O.2     1  ZINC000291574087   -0.4900
     11 N11        -9.4478   -0.6992   60.2952 N.am    1  ZINC000291574087   -0.6400
     12 C12        -9.5062   -0.2045   61.6020 C.ar    1  ZINC000291574087    0.1300
     13 C13       -10.1426    1.0018   61.8614 C.ar    1  ZINC000291574087   -0.1000
     14 C14       -10.1993    1.4880   63.1534 C.ar    1  ZINC000291574087   -0.0400
     15 C15       -10.8902    2.7974   63.4347 C.3     1  ZINC000291574087   -0.1300
     16 C16        -9.6233    0.7746   64.1892 C.ar    1  ZINC000291574087   -0.0900
     17 Br17       -9.7051    1.4444   65.9558 Br      1  ZINC000291574087   -0.0300
     18 C18        -8.9878   -0.4284   63.9357 C.ar    1  ZINC000291574087   -0.1000
     19 C19        -8.9316   -0.9231   62.6460 C.ar    1  ZINC000291574087    0.0700
     20 F20        -8.3112   -2.0973   62.3982 F       1  ZINC000291574087   -0.1300
     21 C21       -13.1959   -4.6843   57.3098 C.3     1  ZINC000291574087   -0.1900
     22 C22       -14.4939   -4.3013   58.0235 C.3     1  ZINC000291574087   -0.1700
     23 C23       -14.4638   -5.5114   57.0878 C.3     1  ZINC000291574087   -0.1600
     24 H24       -11.7992   -4.5620   53.0627 H       1  ZINC000291574087    0.0900
     25 H25       -12.4039   -2.9939   53.6489 H       1  ZINC000291574087    0.0400
     26 H26       -10.8691   -3.6454   54.2722 H       1  ZINC000291574087    0.0500
     27 H27       -14.7217   -3.1397   55.6616 H       1  ZINC000291574087    0.0700
     28 H28       -13.8796   -2.0902   56.8268 H       1  ZINC000291574087    0.0800
     29 H29       -13.4323   -2.0464   55.1046 H       1  ZINC000291574087    0.0700
     30 H30       -10.5976   -3.8991   56.4567 H       1  ZINC000291574087    0.0900
     31 H31       -11.1726   -2.3315   55.8401 H       1  ZINC000291574087    0.0800
     32 H32       -12.2570   -2.7381   58.4200 H       1  ZINC000291574087    0.4200
     33 H33        -8.6942   -0.4778   59.7261 H       1  ZINC000291574087    0.4300
     34 H34       -10.5928    1.5598   61.0538 H       1  ZINC000291574087    0.1600
     35 H35       -11.9424    2.6137   63.6516 H       1  ZINC000291574087    0.0800
     36 H36       -10.4210    3.2787   64.2928 H       1  ZINC000291574087    0.0800
     37 H37       -10.8068    3.4468   62.5633 H       1  ZINC000291574087    0.0800
     38 H38        -8.5386   -0.9828   64.7465 H       1  ZINC000291574087    0.1500
     39 H39       -12.4032   -5.1298   57.9109 H       1  ZINC000291574087    0.1100
     40 H40       -14.5553   -4.4946   59.0946 H       1  ZINC000291574087    0.1000
     41 H41       -15.0149   -3.4092   57.6761 H       1  ZINC000291574087    0.1000
     42 H42       -14.9651   -5.4154   56.1247 H       1  ZINC000291574087    0.1000
     43 H43       -14.5054   -6.5008   57.5432 H       1  ZINC000291574087    0.1000
@<TRIPOS>BOND
     1     1     2    1
     2     1    24    1
     3     1    25    1
     4     1    26    1
     5     2     3    1
     6     3     4    1
     7     3     5    1
     8     3    21    1
     9     4    27    1
    10     4    28    1
    11     4    29    1
    12     5     6    1
    13     5    30    1
    14     5    31    1
    15     6     7   am
    16     6    32    1
    17     7     8    2
    18     7     9    1
    19     9    10    2
    20     9    11   am
    21    11    12    1
    22    11    33    1
    23    12    19   ar
    24    12    13   ar
    25    13    14   ar
    26    13    34    1
    27    14    15    1
    28    14    16   ar
    29    15    35    1
    30    15    36    1
    31    15    37    1
    32    16    17    1
    33    16    18   ar
    34    18    19   ar
    35    18    38    1
    36    19    20    1
    37    21    23    1
    38    21    22    1
    39    21    39    1
    40    22    23    1
    41    22    40    1
    42    22    41    1
    43    23    42    1
    44    23    43    1
@<TRIPOS>SUBSTRUCTURE
     1 ZINC000291574087        1 TEMP              0 ****  ****    0 ROOT


##########                                Name:    ZINC000626935317
##########                DOCK_Rotatable_Bonds:                   6
##########                         Heavy_Atoms:                  25
##########                    Molecular_Weight:             366.441
##########                DOCK_Rotatable_Bonds:                   6
##########                       Formal_Charge:          -0.0200006
##########                     HBond_Acceptors:                   9
##########                        HBond_Donors:                   2
##########                         Heavy_Atoms:                  25
##########                          Grid_Score:          -30.732550
##########                     Grid_vdw_energy:          -29.842096
##########                      Grid_es_energy:           -0.890454
##########           Internal_energy_repulsive:           10.704451

@<TRIPOS>MOLECULE
ZINC000626935317
 47 49 1 0 0
SMALL
USER_CHARGES


@<TRIPOS>ATOM
      1 C1         -9.1224   -3.5959   60.0556 C.3     1  ZINC000626935317    0.0900
      2 N2         -9.8434   -3.4223   58.7921 N.am    1  ZINC000626935317   -0.6200
      3 C3        -10.4440   -4.4184   58.1185 C.2     1  ZINC000626935317    0.5200
      4 O4        -10.4595   -5.5806   58.4649 O.2     1  ZINC000626935317   -0.5200
      5 C5        -11.0979   -3.8790   56.8655 C.3     1  ZINC000626935317   -0.1500
      6 C6        -11.1591   -2.3514   57.0974 C.3     1  ZINC000626935317   -0.1200
      7 H7        -12.1138   -2.0614   57.5361 H       1  ZINC000626935317    0.1200
      8 C8        -10.9077   -1.6008   55.8150 C.2     1  ZINC000626935317    0.5300
      9 O9        -10.3547   -0.5218   55.8423 O.2     1  ZINC000626935317   -0.5200
     10 N10       -11.2976   -2.1286   54.6378 N.am    1  ZINC000626935317   -0.7100
     11 C11       -11.0548   -1.3982   53.3912 C.3     1  ZINC000626935317    0.1200
     12 C12       -11.3908   -2.2074   52.1275 C.3     1  ZINC000626935317   -0.1600
     13 C13       -12.8174   -1.6448   52.2417 C.3     1  ZINC000626935317    0.1200
     14 N14       -13.7079   -2.4660   53.0657 N.am    1  ZINC000626935317   -1.1100
     15 S15       -15.3254   -2.5379   52.7182 S.o2    1  ZINC000626935317    2.6100
     16 C16       -15.8958   -0.8219   52.8616 C.3     1  ZINC000626935317   -0.6700
     17 O17       -15.3742   -2.9681   51.3648 O.2     1  ZINC000626935317   -0.9500
     18 O18       -15.8726   -3.3341   53.7603 O.2     1  ZINC000626935317   -0.9500
     19 C19       -12.2030   -0.4543   52.9968 C.3     1  ZINC000626935317   -0.1600
     20 C20       -10.0082   -2.1372   58.1025 C.3     1  ZINC000626935317    0.2000
     21 H21        -9.0899   -1.8787   57.5751 H       1  ZINC000626935317    0.1100
     22 C22       -10.3681   -1.0519   59.0840 C.ar    1  ZINC000626935317   -0.1600
     23 C23        -9.7037    0.1646   59.0603 C.ar    1  ZINC000626935317   -0.0500
     24 C24       -10.0687    1.1341   59.9822 C.ar    1  ZINC000626935317   -0.1700
     25 C25       -11.0755    0.8576   60.8872 C.ar    1  ZINC000626935317    0.1000
     26 N26       -11.6862   -0.3113   60.8808 N.ar    1  ZINC000626935317   -0.4800
     27 C27       -11.3690   -1.2545   60.0157 C.ar    1  ZINC000626935317    0.1200
     28 H28        -9.8142   -3.4717   60.8888 H       1  ZINC000626935317    0.0600
     29 H29        -8.6866   -4.5944   60.0910 H       1  ZINC000626935317    0.0800
     30 H30        -8.3300   -2.8509   60.1271 H       1  ZINC000626935317    0.0700
     31 H31       -10.4910   -4.1079   55.9896 H       1  ZINC000626935317    0.1100
     32 H32       -12.1018   -4.2882   56.7528 H       1  ZINC000626935317    0.1200
     33 H33       -11.7389   -2.9922   54.6158 H       1  ZINC000626935317    0.4000
     34 H34       -10.0724   -0.9270   53.3613 H       1  ZINC000626935317    0.1100
     35 H35       -10.8582   -1.8699   51.2384 H       1  ZINC000626935317    0.1100
     36 H36       -11.3340   -3.2864   52.2721 H       1  ZINC000626935317    0.0800
     37 H37       -13.2583   -1.3745   51.2822 H       1  ZINC000626935317    0.1100
     38 H38       -13.3500   -2.9674   53.8151 H       1  ZINC000626935317    0.4100
     39 H39       -15.3542   -0.1983   52.1505 H       1  ZINC000626935317    0.1300
     40 H40       -16.9635   -0.7748   52.6468 H       1  ZINC000626935317    0.1300
     41 H41       -15.7128   -0.4616   53.8740 H       1  ZINC000626935317    0.1300
     42 H42       -12.8020   -0.1178   53.8430 H       1  ZINC000626935317    0.0900
     43 H43       -11.8925    0.3625   52.3453 H       1  ZINC000626935317    0.1100
     44 H44        -8.9201    0.3525   58.3413 H       1  ZINC000626935317    0.1400
     45 H45        -9.5721    2.0932   59.9927 H       1  ZINC000626935317    0.1400
     46 H46       -11.3654    1.6072   61.6086 H       1  ZINC000626935317    0.1600
     47 H47       -11.8913   -2.1995   60.0408 H       1  ZINC000626935317    0.1500
@<TRIPOS>BOND
     1     1     2    1
     2     1    28    1
     3     1    29    1
     4     1    30    1
     5     2    20    1
     6     2     3   am
     7     3     4    2
     8     3     5    1
     9     5     6    1
    10     5    31    1
    11     5    32    1
    12     6     7    1
    13     6     8    1
    14     6    20    1
    15     8     9    2
    16     8    10   am
    17    10    11    1
    18    10    33    1
    19    11    19    1
    20    11    12    1
    21    11    34    1
    22    12    13    1
    23    12    35    1
    24    12    36    1
    25    13    14    1
    26    13    19    1
    27    13    37    1
    28    14    15   am
    29    14    38    1
    30    15    16    1
    31    15    17    2
    32    15    18    2
    33    16    39    1
    34    16    40    1
    35    16    41    1
    36    19    42    1
    37    19    43    1
    38    20    21    1
    39    20    22    1
    40    22    27   ar
    41    22    23   ar
    42    23    24   ar
    43    23    44    1
    44    24    25   ar
    45    24    45    1
    46    25    26   ar
    47    25    46    1
    48    26    27   ar
    49    27    47    1
@<TRIPOS>SUBSTRUCTURE
     1 ZINC000626935317        1 TEMP              0 ****  ****    0 ROOT


##########                                Name:    ZINC000462219577
##########                DOCK_Rotatable_Bonds:                   8
##########                         Heavy_Atoms:                  31
##########                    Molecular_Weight:             418.539
##########                DOCK_Rotatable_Bonds:                   8
##########                       Formal_Charge:         -0.00999914
##########                     HBond_Acceptors:                   6
##########                        HBond_Donors:                   2
##########                         Heavy_Atoms:                  31
##########                          Grid_Score:          -30.711117
##########                     Grid_vdw_energy:          -29.457685
##########                      Grid_es_energy:           -1.253432
##########           Internal_energy_repulsive:           15.427674

@<TRIPOS>MOLECULE
ZINC000462219577
 61 64 1 0 0
SMALL
USER_CHARGES


@<TRIPOS>ATOM
      1 C1        -16.2756   -1.4914   59.3371 C.3     1  ZINC000462219577   -0.0700
      2 C2        -14.7981   -1.2456   59.5039 C.2     1  ZINC000462219577    0.0800
      3 N3        -13.8784   -2.1662   59.6438 N.2     1  ZINC000462219577   -0.2900
      4 N4        -12.6370   -1.5295   59.7695 N.pl3   1  ZINC000462219577   -0.3200
      5 C5        -11.3980   -2.1634   59.9373 C.ar    1  ZINC000462219577    0.1500
      6 C6        -10.6090   -1.8674   61.0406 C.ar    1  ZINC000462219577   -0.1100
      7 C7         -9.3886   -2.4935   61.2031 C.ar    1  ZINC000462219577   -0.1000
      8 C8         -8.9522   -3.4140   60.2680 C.ar    1  ZINC000462219577   -0.1200
      9 C9         -9.7356   -3.7105   59.1678 C.ar    1  ZINC000462219577   -0.1000
     10 C10       -10.9598   -3.0925   59.0033 C.ar    1  ZINC000462219577   -0.1300
     11 C11       -12.8455   -0.1952   59.6999 C.2     1  ZINC000462219577    0.0900
     12 C12       -11.7886    0.8753   59.7891 C.3     1  ZINC000462219577   -0.0800
     13 C13       -10.7126    0.6188   58.7319 C.3     1  ZINC000462219577    0.1700
     14 H14       -10.2191   -0.3308   58.9387 H       1  ZINC000462219577    0.1000
     15 C15        -9.6813    1.7484   58.7695 C.3     1  ZINC000462219577   -0.1600
     16 N16       -11.3332    0.5682   57.4058 N.am    1  ZINC000462219577   -0.7400
     17 C17       -10.7715   -0.1681   56.4266 C.2     1  ZINC000462219577    0.7100
     18 O18        -9.7505   -0.7914   56.6442 O.2     1  ZINC000462219577   -0.5800
     19 N19       -11.3415   -0.2134   55.2061 N.am    1  ZINC000462219577   -0.7400
     20 C20       -10.7319   -1.0150   54.1422 C.3     1  ZINC000462219577    0.1600
     21 H21        -9.6485   -0.8991   54.1736 H       1  ZINC000462219577    0.1000
     22 C22       -11.0952   -2.4900   54.3398 C.3     1  ZINC000462219577   -0.1700
     23 C23       -12.6125   -2.6543   54.2181 C.3     1  ZINC000462219577    0.0700
     24 O24       -13.0416   -2.1731   52.9429 O.3     1  ZINC000462219577   -0.3700
     25 C25       -12.7707   -0.7876   52.7208 C.3     1  ZINC000462219577    0.1400
     26 H26       -13.2646   -0.1929   53.4892 H       1  ZINC000462219577    0.0600
     27 C27       -13.2887   -0.3855   51.3638 C.ar    1  ZINC000462219577   -0.0900
     28 C28       -13.8656    0.8579   51.1848 C.ar    1  ZINC000462219577   -0.0900
     29 C29       -14.3406    1.2266   49.9401 C.ar    1  ZINC000462219577   -0.1200
     30 C30       -14.2385    0.3521   48.8744 C.ar    1  ZINC000462219577   -0.1200
     31 C31       -13.6608   -0.8910   49.0533 C.ar    1  ZINC000462219577   -0.1200
     32 C32       -13.1819   -1.2580   50.2970 C.ar    1  ZINC000462219577   -0.1100
     33 C33       -11.2582   -0.5467   52.7821 C.3     1  ZINC000462219577   -0.1500
     34 C34       -14.1727    0.0057   59.5297 C.2     1  ZINC000462219577   -0.2600
     35 H35       -16.5100   -1.5904   58.2772 H       1  ZINC000462219577    0.0800
     36 H36       -16.5525   -2.4082   59.8577 H       1  ZINC000462219577    0.0700
     37 H37       -16.8329   -0.6534   59.7557 H       1  ZINC000462219577    0.0800
     38 H38       -10.9489   -1.1481   61.7710 H       1  ZINC000462219577    0.1300
     39 H39        -8.7744   -2.2637   62.0612 H       1  ZINC000462219577    0.1300
     40 H40        -7.9974   -3.9020   60.3970 H       1  ZINC000462219577    0.1300
     41 H41        -9.3919   -4.4293   58.4388 H       1  ZINC000462219577    0.1300
     42 H42       -11.5714   -3.3246   58.1438 H       1  ZINC000462219577    0.1300
     43 H43       -12.2434    1.8505   59.6154 H       1  ZINC000462219577    0.0900
     44 H44       -11.3356    0.8570   60.7803 H       1  ZINC000462219577    0.1100
     45 H45       -10.1748    2.6981   58.5628 H       1  ZINC000462219577    0.0600
     46 H46        -9.2195    1.7861   59.7561 H       1  ZINC000462219577    0.0700
     47 H47        -8.9148    1.5658   58.0164 H       1  ZINC000462219577    0.0700
     48 H48       -12.1484    1.0645   57.2326 H       1  ZINC000462219577    0.3900
     49 H49       -12.1554    0.2849   55.0322 H       1  ZINC000462219577    0.3900
     50 H50       -10.6012   -3.0921   53.5772 H       1  ZINC000462219577    0.0800
     51 H51       -10.7718   -2.8155   55.3285 H       1  ZINC000462219577    0.0800
     52 H52       -12.8728   -3.7083   54.3153 H       1  ZINC000462219577    0.1000
     53 H53       -13.1043   -2.0841   55.0061 H       1  ZINC000462219577    0.0500
     54 H54       -13.9453    1.5411   52.0173 H       1  ZINC000462219577    0.1300
     55 H55       -14.7918    2.1978   49.8003 H       1  ZINC000462219577    0.1200
     56 H56       -14.6103    0.6400   47.9021 H       1  ZINC000462219577    0.1200
     57 H57       -13.5814   -1.5743   48.2207 H       1  ZINC000462219577    0.1200
     58 H58       -12.7306   -2.2292   50.4367 H       1  ZINC000462219577    0.1200
     59 H59       -11.0534    0.5165   52.6568 H       1  ZINC000462219577    0.0800
     60 H60       -10.7672   -1.1094   51.9881 H       1  ZINC000462219577    0.0900
     61 H61       -14.6636    0.9634   59.4374 H       1  ZINC000462219577    0.1500
@<TRIPOS>BOND
     1     1     2    1
     2     1    35    1
     3     1    36    1
     4     1    37    1
     5     2    34    1
     6     2     3    2
     7     3     4    1
     8     4     5    1
     9     4    11    1
    10     5    10   ar
    11     5     6   ar
    12     6     7   ar
    13     6    38    1
    14     7     8   ar
    15     7    39    1
    16     8     9   ar
    17     8    40    1
    18     9    10   ar
    19     9    41    1
    20    10    42    1
    21    11    12    1
    22    11    34    2
    23    12    13    1
    24    12    43    1
    25    12    44    1
    26    13    14    1
    27    13    15    1
    28    13    16    1
    29    15    45    1
    30    15    46    1
    31    15    47    1
    32    16    17   am
    33    16    48    1
    34    17    18    2
    35    17    19   am
    36    19    20    1
    37    19    49    1
    38    20    21    1
    39    20    33    1
    40    20    22    1
    41    22    23    1
    42    22    50    1
    43    22    51    1
    44    23    24    1
    45    23    52    1
    46    23    53    1
    47    24    25    1
    48    25    26    1
    49    25    27    1
    50    25    33    1
    51    27    32   ar
    52    27    28   ar
    53    28    29   ar
    54    28    54    1
    55    29    30   ar
    56    29    55    1
    57    30    31   ar
    58    30    56    1
    59    31    32   ar
    60    31    57    1
    61    32    58    1
    62    33    59    1
    63    33    60    1
    64    34    61    1
@<TRIPOS>SUBSTRUCTURE
     1 ZINC000462219577        1 TEMP              0 ****  ****    0 ROOT


##########                                Name:    ZINC000611836474
##########                DOCK_Rotatable_Bonds:                   7
##########                         Heavy_Atoms:                  22
##########                    Molecular_Weight:             366.258
##########                DOCK_Rotatable_Bonds:                   7
##########                       Formal_Charge:          -0.0300004
##########                     HBond_Acceptors:                   5
##########                        HBond_Donors:                   1
##########                         Heavy_Atoms:                  22
##########                          Grid_Score:          -30.708662
##########                     Grid_vdw_energy:          -30.227140
##########                      Grid_es_energy:           -0.481521
##########           Internal_energy_repulsive:           11.703866

@<TRIPOS>MOLECULE
ZINC000611836474
 42 43 1 0 0
SMALL
USER_CHARGES


@<TRIPOS>ATOM
      1 C1        -15.2232   -1.8143   54.4461 C.3     1  ZINC000611836474   -0.1500
      2 C2        -15.5280   -3.3132   54.4822 C.3     1  ZINC000611836474   -0.1400
      3 C3        -14.3717   -4.0528   55.1580 C.3     1  ZINC000611836474    0.1300
      4 N4        -13.1244   -3.7634   54.4461 N.pl3   1  ZINC000611836474   -0.3900
      5 N5        -12.7673   -4.2447   53.1801 N.2     1  ZINC000611836474   -0.2900
      6 C6        -11.5852   -3.7722   52.8777 C.2     1  ZINC000611836474    0.0600
      7 C7        -11.1466   -2.9740   53.9377 C.2     1  ZINC000611836474   -0.2800
      8 C8        -12.1166   -2.9796   54.8926 C.2     1  ZINC000611836474    0.3000
      9 N9        -12.0753   -2.3061   56.1132 N.am    1  ZINC000611836474   -0.6500
     10 C10       -11.8498   -2.9896   57.2527 C.2     1  ZINC000611836474    0.5200
     11 O11       -11.6812   -4.1902   57.2166 O.2     1  ZINC000611836474   -0.4700
     12 C12       -11.8069   -2.2621   58.5718 C.3     1  ZINC000611836474    0.0700
     13 H13       -11.7872   -2.9867   59.3859 H       1  ZINC000611836474    0.1100
     14 C14       -13.0474   -1.3771   58.7068 C.3     1  ZINC000611836474   -0.1800
     15 O15       -10.6331   -1.4491   58.6294 O.3     1  ZINC000611836474   -0.2700
     16 C16       -10.2240   -1.0424   59.8600 C.ar    1  ZINC000611836474    0.1500
     17 C17       -10.5596    0.2217   60.3210 C.ar    1  ZINC000611836474   -0.2000
     18 C18       -10.1424    0.6332   61.5725 C.ar    1  ZINC000611836474   -0.0600
     19 C19        -9.3905   -0.2139   62.3651 C.ar    1  ZINC000611836474   -0.1100
     20 C20        -8.9367    0.2380   63.7293 C.3     1  ZINC000611836474   -0.1100
     21 C21        -9.0545   -1.4752   61.9086 C.ar    1  ZINC000611836474   -0.0500
     22 C22        -9.4740   -1.8938   60.6602 C.ar    1  ZINC000611836474   -0.1200
     23 Br23       -9.0143   -3.6186   60.0362 Br      1  ZINC000611836474   -0.0300
     24 H24       -16.0469   -1.2875   53.9646 H       1  ZINC000611836474    0.0600
     25 H25       -15.1004   -1.4439   55.4639 H       1  ZINC000611836474    0.0600
     26 H26       -14.3049   -1.6438   53.8841 H       1  ZINC000611836474    0.0600
     27 H27       -16.4463   -3.4837   55.0442 H       1  ZINC000611836474    0.0800
     28 H28       -15.6508   -3.6836   53.4645 H       1  ZINC000611836474    0.0600
     29 H29       -14.2844   -3.7222   56.1930 H       1  ZINC000611836474    0.0800
     30 H30       -14.5632   -5.1257   55.1342 H       1  ZINC000611836474    0.1000
     31 H31       -11.0412   -3.9662   51.9651 H       1  ZINC000611836474    0.1900
     32 H32       -10.2070   -2.4442   53.9887 H       1  ZINC000611836474    0.1700
     33 H33       -12.2088   -1.3457   56.1421 H       1  ZINC000611836474    0.4100
     34 H34       -13.9428   -1.9972   58.6629 H       1  ZINC000611836474    0.0800
     35 H35       -13.0163   -0.8509   59.6609 H       1  ZINC000611836474    0.0800
     36 H36       -13.0671   -0.6525   57.8927 H       1  ZINC000611836474    0.0800
     37 H37       -11.1464    0.8845   59.7020 H       1  ZINC000611836474    0.1400
     38 H38       -10.4038    1.6176   61.9316 H       1  ZINC000611836474    0.1300
     39 H39        -9.6889   -0.0322   64.4704 H       1  ZINC000611836474    0.0700
     40 H40        -7.9922   -0.2465   63.9768 H       1  ZINC000611836474    0.0700
     41 H41        -8.8007    1.3195   63.7271 H       1  ZINC000611836474    0.0700
     42 H42        -8.4669   -2.1351   62.5297 H       1  ZINC000611836474    0.1400
@<TRIPOS>BOND
     1     1     2    1
     2     1    24    1
     3     1    25    1
     4     1    26    1
     5     2     3    1
     6     2    27    1
     7     2    28    1
     8     3     4    1
     9     3    29    1
    10     3    30    1
    11     4     8    1
    12     4     5    1
    13     5     6    2
    14     6     7    1
    15     6    31    1
    16     7     8    2
    17     7    32    1
    18     8     9    1
    19     9    10   am
    20     9    33    1
    21    10    11    2
    22    10    12    1
    23    12    13    1
    24    12    14    1
    25    12    15    1
    26    14    34    1
    27    14    35    1
    28    14    36    1
    29    15    16    1
    30    16    22   ar
    31    16    17   ar
    32    17    18   ar
    33    17    37    1
    34    18    19   ar
    35    18    38    1
    36    19    20    1
    37    19    21   ar
    38    20    39    1
    39    20    40    1
    40    20    41    1
    41    21    22   ar
    42    21    42    1
    43    22    23    1
@<TRIPOS>SUBSTRUCTURE
     1 ZINC000611836474        1 TEMP              0 ****  ****    0 ROOT


##########                                Name:    ZINC000156038173
##########                DOCK_Rotatable_Bonds:                  10
##########                         Heavy_Atoms:                  27
##########                    Molecular_Weight:             396.357
##########                DOCK_Rotatable_Bonds:                  10
##########                       Formal_Charge:         -0.00999981
##########                     HBond_Acceptors:                  10
##########                        HBond_Donors:                   1
##########                         Heavy_Atoms:                  27
##########                          Grid_Score:          -30.703018
##########                     Grid_vdw_energy:          -30.784117
##########                      Grid_es_energy:            0.081099
##########           Internal_energy_repulsive:           19.102348

@<TRIPOS>MOLECULE
ZINC000156038173
 48 48 1 0 0
SMALL
USER_CHARGES


@<TRIPOS>ATOM
      1 C1         -8.8309   -3.8886   59.8514 C.3     1  ZINC000156038173    0.0700
      2 N2         -9.3953   -2.7760   59.0837 N.am    1  ZINC000156038173   -0.6300
      3 C3         -8.9062   -1.4124   59.3027 C.3     1  ZINC000156038173    0.1500
      4 C4         -9.9695   -0.6028   60.0477 C.3     1  ZINC000156038173   -0.1400
      5 C5         -9.5030   -0.3367   61.4558 C.2     1  ZINC000156038173    0.4700
      6 O6         -9.0296   -1.2320   62.1147 O.2     1  ZINC000156038173   -0.5000
      7 O7         -9.6135    0.8949   61.9780 O.3     1  ZINC000156038173   -0.3500
      8 C8        -10.4973    1.0501   63.1195 C.3     1  ZINC000156038173    0.1200
      9 C9        -11.7363    0.1731   62.9281 C.3     1  ZINC000156038173   -0.1800
     10 C10        -9.7640    0.6257   64.3935 C.3     1  ZINC000156038173   -0.1400
     11 C11       -10.9227    2.5148   63.2397 C.3     1  ZINC000156038173   -0.1800
     12 C12       -10.3643   -3.0066   58.1758 C.2     1  ZINC000156038173    0.7100
     13 O13       -10.7713   -4.1379   57.9951 O.2     1  ZINC000156038173   -0.5700
     14 N14       -10.8823   -1.9830   57.4685 N.am    1  ZINC000156038173   -0.7400
     15 C15       -11.9369   -2.2333   56.4829 C.3     1  ZINC000156038173    0.1700
     16 H16       -12.3803   -3.2122   56.6658 H       1  ZINC000156038173    0.1500
     17 C17       -11.3470   -2.2004   55.0965 C.ar    1  ZINC000156038173   -0.1300
     18 C18       -10.5325   -1.1503   54.7169 C.ar    1  ZINC000156038173   -0.0700
     19 C19        -9.9905   -1.1186   53.4453 C.ar    1  ZINC000156038173   -0.1000
     20 C20       -10.2620   -2.1369   52.5512 C.ar    1  ZINC000156038173   -0.1100
     21 C21       -11.0773   -3.1899   52.9283 C.ar    1  ZINC000156038173    0.0700
     22 F22       -11.3433   -4.1857   52.0548 F       1  ZINC000156038173   -0.1200
     23 C23       -11.6162   -3.2246   54.2053 C.ar    1  ZINC000156038173    0.1000
     24 F24       -12.4123   -4.2514   54.5756 F       1  ZINC000156038173   -0.1200
     25 C25       -13.0149   -1.1544   56.6041 C.3     1  ZINC000156038173    0.4500
     26 F26       -12.4904   -0.0446   57.2752 F       1  ZINC000156038173   -0.1700
     27 F27       -13.4364   -0.7706   55.3266 F       1  ZINC000156038173   -0.1600
     28 F28       -14.1036   -1.6616   57.3216 F       1  ZINC000156038173   -0.1700
     29 H29        -9.4044   -4.0254   60.7682 H       1  ZINC000156038173    0.0600
     30 H30        -8.8750   -4.8005   59.2558 H       1  ZINC000156038173    0.0700
     31 H31        -7.7932   -3.6681   60.1017 H       1  ZINC000156038173    0.0800
     32 H32        -7.9925   -1.4451   59.8961 H       1  ZINC000156038173    0.1000
     33 H33        -8.6987   -0.9421   58.3415 H       1  ZINC000156038173    0.0900
     34 H34       -10.1313    0.3445   59.5334 H       1  ZINC000156038173    0.1100
     35 H35       -10.9024   -1.1659   60.0743 H       1  ZINC000156038173    0.1100
     36 H36       -11.4333   -0.8704   62.8425 H       1  ZINC000156038173    0.0600
     37 H37       -12.3997    0.2896   63.7851 H       1  ZINC000156038173    0.0700
     38 H38       -12.2587    0.4754   62.0205 H       1  ZINC000156038173    0.0800
     39 H39        -8.8812    1.2505   64.5299 H       1  ZINC000156038173    0.0700
     40 H40       -10.4274    0.7422   65.2505 H       1  ZINC000156038173    0.0800
     41 H41        -9.4609   -0.4178   64.3079 H       1  ZINC000156038173    0.0700
     42 H42       -11.4450    2.8171   62.3321 H       1  ZINC000156038173    0.0800
     43 H43       -11.5861    2.6313   64.0967 H       1  ZINC000156038173    0.0700
     44 H44       -10.0399    3.1395   63.3761 H       1  ZINC000156038173    0.0600
     45 H45       -10.5568   -1.0806   57.6118 H       1  ZINC000156038173    0.4100
     46 H46       -10.3195   -0.3535   55.4141 H       1  ZINC000156038173    0.1400
     47 H47        -9.3546   -0.2971   53.1504 H       1  ZINC000156038173    0.1500
     48 H48        -9.8384   -2.1107   51.5581 H       1  ZINC000156038173    0.1500
@<TRIPOS>BOND
     1     1     2    1
     2     1    29    1
     3     1    30    1
     4     1    31    1
     5     2     3    1
     6     2    12   am
     7     3     4    1
     8     3    32    1
     9     3    33    1
    10     4     5    1
    11     4    34    1
    12     4    35    1
    13     5     6    2
    14     5     7    1
    15     7     8    1
    16     8     9    1
    17     8    10    1
    18     8    11    1
    19     9    36    1
    20     9    37    1
    21     9    38    1
    22    10    39    1
    23    10    40    1
    24    10    41    1
    25    11    42    1
    26    11    43    1
    27    11    44    1
    28    12    13    2
    29    12    14   am
    30    14    15    1
    31    14    45    1
    32    15    16    1
    33    15    17    1
    34    15    25    1
    35    17    23   ar
    36    17    18   ar
    37    18    19   ar
    38    18    46    1
    39    19    20   ar
    40    19    47    1
    41    20    21   ar
    42    20    48    1
    43    21    22    1
    44    21    23   ar
    45    23    24    1
    46    25    26    1
    47    25    27    1
    48    25    28    1
@<TRIPOS>SUBSTRUCTURE
     1 ZINC000156038173        1 TEMP              0 ****  ****    0 ROOT


##########                                Name:    ZINC000549381790
##########                DOCK_Rotatable_Bonds:                   7
##########                         Heavy_Atoms:                  23
##########                    Molecular_Weight:             337.846
##########                DOCK_Rotatable_Bonds:                   7
##########                       Formal_Charge:           0.0300006
##########                     HBond_Acceptors:                   5
##########                        HBond_Donors:                   0
##########                         Heavy_Atoms:                  23
##########                          Grid_Score:          -30.701065
##########                     Grid_vdw_energy:          -31.107220
##########                      Grid_es_energy:            0.406155
##########           Internal_energy_repulsive:           90.953758

@<TRIPOS>MOLECULE
ZINC000549381790
 47 49 1 0 0
SMALL
USER_CHARGES


@<TRIPOS>ATOM
      1 C1         -9.3442    1.1059   64.1916 C.3     1  ZINC000549381790   -0.1400
      2 C2        -10.6856    0.9030   63.4845 C.3     1  ZINC000549381790    0.1500
      3 H3        -11.4467    0.6305   64.2158 H       1  ZINC000549381790    0.0700
      4 C4        -11.0942    2.1986   62.7766 C.3     1  ZINC000549381790   -0.1300
      5 C5        -12.3633    1.9499   61.9581 C.3     1  ZINC000549381790   -0.1200
      6 C6        -12.0857    0.8851   60.8944 C.3     1  ZINC000549381790   -0.1400
      7 C7        -11.6884   -0.4254   61.5810 C.3     1  ZINC000549381790    0.1000
      8 N8        -10.5586   -0.1658   62.4844 N.am    1  ZINC000549381790   -0.6100
      9 C9         -9.4262   -0.8909   62.3937 C.2     1  ZINC000549381790    0.5200
     10 O10        -8.5009   -0.6669   63.1450 O.2     1  ZINC000549381790   -0.5000
     11 C11        -9.3097   -1.9799   61.3585 C.3     1  ZINC000549381790    0.0400
     12 O12        -8.9744   -1.4022   60.0951 O.3     1  ZINC000549381790   -0.2800
     13 C13        -9.5922   -1.9160   58.9980 C.ar    1  ZINC000549381790    0.1100
     14 C14       -10.0202   -1.0718   57.9845 C.ar    1  ZINC000549381790   -0.1700
     15 C15       -10.6475   -1.5933   56.8692 C.ar    1  ZINC000549381790   -0.1600
     16 C16       -10.8498   -2.9608   56.7633 C.ar    1  ZINC000549381790    0.1100
     17 O17       -11.4673   -3.4740   55.6655 O.3     1  ZINC000549381790   -0.3000
     18 C18       -10.9136   -3.1359   54.3922 C.3     1  ZINC000549381790    0.0900
     19 C19       -12.0319   -2.6722   53.4567 C.3     1  ZINC000549381790   -0.1600
     20 C20       -12.2131   -1.1651   53.2651 C.3     1  ZINC000549381790   -0.1700
     21 C21       -11.6220   -2.0139   52.1377 C.3     1  ZINC000549381790   -0.1700
     22 C22       -10.4215   -3.8062   57.7777 C.ar    1  ZINC000549381790   -0.0300
     23 Cl23      -10.6741   -5.5187   57.6453 Cl      1  ZINC000549381790   -0.0400
     24 C24        -9.7890   -3.2849   58.8902 C.ar    1  ZINC000549381790   -0.1000
     25 H25        -8.5648    1.2792   63.4495 H       1  ZINC000549381790    0.0600
     26 H26        -9.4106    1.9669   64.8566 H       1  ZINC000549381790    0.0500
     27 H27        -9.1014    0.2161   64.7724 H       1  ZINC000549381790    0.0800
     28 H28       -11.2860    2.9737   63.5187 H       1  ZINC000549381790    0.0800
     29 H29       -10.2909    2.5199   62.1136 H       1  ZINC000549381790    0.0700
     30 H30       -13.1592    1.6050   62.6182 H       1  ZINC000549381790    0.0700
     31 H31       -12.6701    2.8765   61.4731 H       1  ZINC000549381790    0.0700
     32 H32       -12.9831    0.7252   60.2969 H       1  ZINC000549381790    0.0800
     33 H33       -11.2730    1.2187   60.2492 H       1  ZINC000549381790    0.0700
     34 H34       -12.5324   -0.8075   62.1552 H       1  ZINC000549381790    0.0800
     35 H35       -11.3942   -1.1574   60.8288 H       1  ZINC000549381790    0.0800
     36 H36        -8.5302   -2.6816   61.6555 H       1  ZINC000549381790    0.0900
     37 H37       -10.2604   -2.5065   61.2764 H       1  ZINC000549381790    0.0900
     38 H38        -9.8634   -0.0065   58.0669 H       1  ZINC000549381790    0.1400
     39 H39       -10.9807   -0.9355   56.0801 H       1  ZINC000549381790    0.1400
     40 H40       -10.1857   -2.3338   54.5139 H       1  ZINC000549381790    0.0700
     41 H41       -10.4226   -4.0106   53.9658 H       1  ZINC000549381790    0.0700
     42 H42       -12.9286   -3.2918   53.4526 H       1  ZINC000549381790    0.1200
     43 H43       -13.2293   -0.7929   53.1350 H       1  ZINC000549381790    0.1000
     44 H44       -11.5357   -0.5040   53.8056 H       1  ZINC000549381790    0.1000
     45 H45       -10.5557   -1.9113   51.9364 H       1  ZINC000549381790    0.1000
     46 H46       -12.2494   -2.2002   51.2661 H       1  ZINC000549381790    0.1000
     47 H47        -9.4556   -3.9422   59.6796 H       1  ZINC000549381790    0.1500
@<TRIPOS>BOND
     1     1     2    1
     2     1    25    1
     3     1    26    1
     4     1    27    1
     5     2     3    1
     6     2     8    1
     7     2     4    1
     8     4     5    1
     9     4    28    1
    10     4    29    1
    11     5     6    1
    12     5    30    1
    13     5    31    1
    14     6     7    1
    15     6    32    1
    16     6    33    1
    17     7     8    1
    18     7    34    1
    19     7    35    1
    20     8     9   am
    21     9    10    2
    22     9    11    1
    23    11    12    1
    24    11    36    1
    25    11    37    1
    26    12    13    1
    27    13    24   ar
    28    13    14   ar
    29    14    15   ar
    30    14    38    1
    31    15    16   ar
    32    15    39    1
    33    16    17    1
    34    16    22   ar
    35    17    18    1
    36    18    19    1
    37    18    40    1
    38    18    41    1
    39    19    21    1
    40    19    20    1
    41    19    42    1
    42    20    21    1
    43    20    43    1
    44    20    44    1
    45    21    45    1
    46    21    46    1
    47    22    23    1
    48    22    24   ar
    49    24    47    1
@<TRIPOS>SUBSTRUCTURE
     1 ZINC000549381790        1 TEMP              0 ****  ****    0 ROOT


##########                                Name:    ZINC001060733018
##########                DOCK_Rotatable_Bonds:                   7
##########                         Heavy_Atoms:                  24
##########                    Molecular_Weight:             342.429
##########                DOCK_Rotatable_Bonds:                   7
##########                       Formal_Charge:           0.0200001
##########                     HBond_Acceptors:                   6
##########                        HBond_Donors:                   2
##########                         Heavy_Atoms:                  24
##########                          Grid_Score:          -30.669434
##########                     Grid_vdw_energy:          -27.494314
##########                      Grid_es_energy:           -3.175120
##########           Internal_energy_repulsive:            7.387087

@<TRIPOS>MOLECULE
ZINC001060733018
 52 54 1 0 0
SMALL
USER_CHARGES


@<TRIPOS>ATOM
      1 O1        -11.0633    1.4245   64.7505 O.2     1  ZINC001060733018   -0.5000
      2 C2        -10.0787    2.0391   64.3987 C.2     1  ZINC001060733018    0.4700
      3 N3         -9.1420    1.4347   63.6411 N.am    1  ZINC001060733018   -0.7100
      4 C4         -9.3112    0.0341   63.2462 C.3     1  ZINC001060733018    0.1200
      5 C5         -9.7696   -0.0329   61.7881 C.3     1  ZINC001060733018   -0.1000
      6 H6         -9.2597    0.7387   61.2111 H       1  ZINC001060733018    0.0800
      7 C7         -9.4321   -1.4087   61.2101 C.3     1  ZINC001060733018   -0.1100
      8 C8         -9.8904   -1.4756   59.7518 C.3     1  ZINC001060733018   -0.1300
      9 C9        -11.4020   -1.2498   59.6815 C.3     1  ZINC001060733018    0.1400
     10 H10       -11.9119   -2.0214   60.2585 H       1  ZINC001060733018    0.0900
     11 N11       -11.8409   -1.3140   58.2853 N.am    1  ZINC001060733018   -0.7300
     12 C12       -12.1088   -2.5065   57.7172 C.2     1  ZINC001060733018    0.5200
     13 O13       -11.9878   -3.5263   58.3623 O.2     1  ZINC001060733018   -0.5400
     14 C14       -12.5585   -2.5725   56.2804 C.3     1  ZINC001060733018   -0.1000
     15 H15       -12.7935   -1.5686   55.9267 H       1  ZINC001060733018    0.1000
     16 C16       -13.8036   -3.4546   56.1758 C.3     1  ZINC001060733018   -0.1100
     17 C17       -14.3103   -3.4676   54.7329 C.3     1  ZINC001060733018   -0.1200
     18 C18       -13.2465   -4.0911   53.8242 C.3     1  ZINC001060733018   -0.0800
     19 C19       -11.9397   -3.3081   53.9813 C.3     1  ZINC001060733018   -0.1300
     20 C20       -11.6922   -2.1409   53.0260 C.3     1  ZINC001060733018   -0.1700
     21 C21       -10.8948   -3.4381   52.8737 C.3     1  ZINC001060733018   -0.1700
     22 C22       -11.4384   -3.1674   55.4216 C.3     1  ZINC001060733018   -0.0600
     23 C23       -11.7396    0.1259   60.2596 C.3     1  ZINC001060733018   -0.1200
     24 C24       -11.2812    0.1929   61.7178 C.3     1  ZINC001060733018   -0.1100
     25 C25        -9.9056    3.4803   64.8033 C.3     1  ZINC001060733018    0.2600
     26 F26       -10.2099    4.3092   63.7182 F       1  ZINC001060733018   -0.1700
     27 F27       -10.7646    3.7722   65.8683 F       1  ZINC001060733018   -0.1900
     28 H28        -8.3559    1.9270   63.3574 H       1  ZINC001060733018    0.4100
     29 H29        -8.3618   -0.4908   63.3532 H       1  ZINC001060733018    0.0800
     30 H30       -10.0598   -0.4355   63.8844 H       1  ZINC001060733018    0.0800
     31 H31        -8.3552   -1.5696   61.2601 H       1  ZINC001060733018    0.0700
     32 H32        -9.9418   -2.1802   61.7870 H       1  ZINC001060733018    0.0700
     33 H33        -9.6500   -2.4558   59.3400 H       1  ZINC001060733018    0.0700
     34 H34        -9.3806   -0.7041   59.1750 H       1  ZINC001060733018    0.0600
     35 H35       -11.9389   -0.4982   57.7697 H       1  ZINC001060733018    0.4000
     36 H36       -13.5544   -4.4708   56.4814 H       1  ZINC001060733018    0.0700
     37 H37       -14.5825   -3.0606   56.8287 H       1  ZINC001060733018    0.0700
     38 H38       -15.2271   -4.0544   54.6749 H       1  ZINC001060733018    0.0700
     39 H39       -14.5115   -2.4464   54.4092 H       1  ZINC001060733018    0.0700
     40 H40       -13.0859   -5.1306   54.1101 H       1  ZINC001060733018    0.0700
     41 H41       -13.5784   -4.0432   52.7871 H       1  ZINC001060733018    0.0700
     42 H42       -12.4580   -1.9301   52.2796 H       1  ZINC001060733018    0.0900
     43 H43       -11.1672   -1.2706   53.4200 H       1  ZINC001060733018    0.0900
     44 H44        -9.8453   -3.4213   53.1675 H       1  ZINC001060733018    0.0900
     45 H45       -11.1360   -4.0811   52.0273 H       1  ZINC001060733018    0.0900
     46 H46       -10.5715   -2.5070   55.4435 H       1  ZINC001060733018    0.0700
     47 H47       -11.1624   -4.1479   55.8095 H       1  ZINC001060733018    0.0800
     48 H48       -12.8165    0.2869   60.2095 H       1  ZINC001060733018    0.0700
     49 H49       -11.2298    0.8975   59.6827 H       1  ZINC001060733018    0.0700
     50 H50       -11.7911   -0.5786   62.2947 H       1  ZINC001060733018    0.0700
     51 H51       -11.5217    1.1730   62.1296 H       1  ZINC001060733018    0.0700
     52 H52        -8.8739    3.6497   65.1118 H       1  ZINC001060733018    0.1400
@<TRIPOS>BOND
     1     1     2    2
     2     2     3   am
     3     2    25    1
     4     3     4    1
     5     3    28    1
     6     4     5    1
     7     4    29    1
     8     4    30    1
     9     5     6    1
    10     5    24    1
    11     5     7    1
    12     7     8    1
    13     7    31    1
    14     7    32    1
    15     8     9    1
    16     8    33    1
    17     8    34    1
    18     9    10    1
    19     9    11    1
    20     9    23    1
    21    11    12   am
    22    11    35    1
    23    12    13    2
    24    12    14    1
    25    14    15    1
    26    14    22    1
    27    14    16    1
    28    16    17    1
    29    16    36    1
    30    16    37    1
    31    17    18    1
    32    17    38    1
    33    17    39    1
    34    18    19    1
    35    18    40    1
    36    18    41    1
    37    19    21    1
    38    19    20    1
    39    19    22    1
    40    20    21    1
    41    20    42    1
    42    20    43    1
    43    21    44    1
    44    21    45    1
    45    22    46    1
    46    22    47    1
    47    23    24    1
    48    23    48    1
    49    23    49    1
    50    24    50    1
    51    24    51    1
    52    25    26    1
    53    25    27    1
    54    25    52    1
@<TRIPOS>SUBSTRUCTURE
     1 ZINC001060733018        1 TEMP              0 ****  ****    0 ROOT


##########                                Name:    ZINC000252489163
##########                DOCK_Rotatable_Bonds:                   6
##########                         Heavy_Atoms:                  25
##########                    Molecular_Weight:             379.403
##########                DOCK_Rotatable_Bonds:                   6
##########                       Formal_Charge:          0.00999963
##########                     HBond_Acceptors:                  10
##########                        HBond_Donors:                   2
##########                         Heavy_Atoms:                  25
##########                          Grid_Score:          -30.631037
##########                     Grid_vdw_energy:          -28.193510
##########                      Grid_es_energy:           -2.437526
##########           Internal_energy_repulsive:           11.759323

@<TRIPOS>MOLECULE
ZINC000252489163
 45 46 1 0 0
SMALL
USER_CHARGES


@<TRIPOS>ATOM
      1 C1        -11.2973    2.0173   59.6734 C.3     1  ZINC000252489163   -0.1100
      2 C2        -10.6234    0.8790   60.3954 C.ar    1  ZINC000252489163   -0.0600
      3 C3        -10.0607    1.0878   61.6390 C.ar    1  ZINC000252489163   -0.1300
      4 C4         -9.4403    0.0382   62.3041 C.ar    1  ZINC000252489163    0.1700
      5 N5         -8.8696    0.2464   63.5648 N.am    1  ZINC000252489163   -0.6800
      6 C6         -9.6446    0.6210   64.6019 C.2     1  ZINC000252489163    0.7100
      7 O7        -10.8397    0.7780   64.4421 O.2     1  ZINC000252489163   -0.5500
      8 N8         -9.0949    0.8215   65.8160 N.am    1  ZINC000252489163   -0.6200
      9 C9         -9.9267    1.2300   66.9562 C.3     1  ZINC000252489163    0.1000
     10 C10        -9.3260    2.4954   67.5764 C.3     1  ZINC000252489163   -0.1400
     11 C11        -7.8589    2.2389   67.9287 C.3     1  ZINC000252489163   -0.1300
     12 C12        -7.0772    1.9071   66.6555 C.3     1  ZINC000252489163    0.1400
     13 H13        -7.1630    2.7338   65.9502 H       1  ZINC000252489163    0.0900
     14 N14        -5.6668    1.6933   66.9892 N.am    1  ZINC000252489163   -1.1100
     15 S15        -4.4903    2.0488   65.8794 S.o2    1  ZINC000252489163    2.6100
     16 C16        -4.6988    3.8205   65.5504 C.3     1  ZINC000252489163   -0.6700
     17 O17        -3.2723    1.8101   66.5713 O.2     1  ZINC000252489163   -0.9500
     18 O18        -4.8451    1.2841   64.7354 O.2     1  ZINC000252489163   -0.9500
     19 C19        -7.6535    0.6297   66.0260 C.3     1  ZINC000252489163    0.1100
     20 C20        -9.3879   -1.2183   61.7156 C.ar    1  ZINC000252489163   -0.1000
     21 C21        -9.9526   -1.4207   60.4713 C.ar    1  ZINC000252489163   -0.1600
     22 C22        -9.8961   -2.7842   59.8318 C.3     1  ZINC000252489163    0.5100
     23 F23        -8.9059   -2.7951   58.8437 F       1  ZINC000252489163   -0.1700
     24 F24        -9.5947   -3.7434   60.8047 F       1  ZINC000252489163   -0.1800
     25 F25       -11.1353   -3.0798   59.2537 F       1  ZINC000252489163   -0.1800
     26 C26       -10.5742   -0.3750   59.8142 C.ar    1  ZINC000252489163   -0.0900
     27 H27       -12.3515    2.0486   59.9484 H       1  ZINC000252489163    0.0800
     28 H28       -10.8210    2.9572   59.9523 H       1  ZINC000252489163    0.0700
     29 H29       -11.2067    1.8693   58.5973 H       1  ZINC000252489163    0.0700
     30 H30       -10.1029    2.0664   62.0941 H       1  ZINC000252489163    0.1300
     31 H31        -7.9162    0.1211   63.6923 H       1  ZINC000252489163    0.4100
     32 H32       -10.9405    1.4371   66.6132 H       1  ZINC000252489163    0.0800
     33 H33        -9.9457    0.4325   67.6989 H       1  ZINC000252489163    0.0800
     34 H34        -9.3905    3.3164   66.8625 H       1  ZINC000252489163    0.0700
     35 H35        -9.8771    2.7544   68.4804 H       1  ZINC000252489163    0.0900
     36 H36        -7.4358    3.1297   68.3928 H       1  ZINC000252489163    0.0800
     37 H37        -7.7932    1.4016   68.6236 H       1  ZINC000252489163    0.0800
     38 H38        -5.4223    1.3436   67.8603 H       1  ZINC000252489163    0.4200
     39 H39        -4.5670    4.3800   66.4765 H       1  ZINC000252489163    0.1300
     40 H40        -3.9562    4.1446   64.8214 H       1  ZINC000252489163    0.1300
     41 H41        -5.6985    4.0016   65.1557 H       1  ZINC000252489163    0.1300
     42 H42        -7.4853   -0.2149   66.6943 H       1  ZINC000252489163    0.0800
     43 H43        -7.1676    0.4429   65.0684 H       1  ZINC000252489163    0.1100
     44 H44        -8.9057   -2.0364   62.2300 H       1  ZINC000252489163    0.1800
     45 H45       -11.0153   -0.5359   58.8417 H       1  ZINC000252489163    0.1300
@<TRIPOS>BOND
     1     1     2    1
     2     1    27    1
     3     1    28    1
     4     1    29    1
     5     2    26   ar
     6     2     3   ar
     7     3     4   ar
     8     3    30    1
     9     4     5    1
    10     4    20   ar
    11     5     6   am
    12     5    31    1
    13     6     7    2
    14     6     8   am
    15     8    19    1
    16     8     9    1
    17     9    10    1
    18     9    32    1
    19     9    33    1
    20    10    11    1
    21    10    34    1
    22    10    35    1
    23    11    12    1
    24    11    36    1
    25    11    37    1
    26    12    13    1
    27    12    14    1
    28    12    19    1
    29    14    15   am
    30    14    38    1
    31    15    16    1
    32    15    17    2
    33    15    18    2
    34    16    39    1
    35    16    40    1
    36    16    41    1
    37    19    42    1
    38    19    43    1
    39    20    21   ar
    40    20    44    1
    41    21    22    1
    42    21    26   ar
    43    22    23    1
    44    22    24    1
    45    22    25    1
    46    26    45    1
@<TRIPOS>SUBSTRUCTURE
     1 ZINC000252489163        1 TEMP              0 ****  ****    0 ROOT


##########                                Name:    ZINC000543429378
##########                DOCK_Rotatable_Bonds:                   6
##########                         Heavy_Atoms:                  29
##########                    Molecular_Weight:             406.408
##########                DOCK_Rotatable_Bonds:                   6
##########                       Formal_Charge:           0.0100003
##########                     HBond_Acceptors:                   9
##########                        HBond_Donors:                   1
##########                         Heavy_Atoms:                  29
##########                          Grid_Score:          -30.608564
##########                     Grid_vdw_energy:          -30.246281
##########                      Grid_es_energy:           -0.362284
##########           Internal_energy_repulsive:           40.806915

@<TRIPOS>MOLECULE
ZINC000543429378
 50 53 1 0 0
SMALL
USER_CHARGES


@<TRIPOS>ATOM
      1 O1        -12.8140   -0.9399   58.8105 O.2     1  ZINC000543429378   -0.5100
      2 C2        -12.2427   -1.9743   59.0836 C.2     1  ZINC000543429378    0.5200
      3 N3        -12.1414   -2.3695   60.3681 N.am    1  ZINC000543429378   -0.6600
      4 C4        -12.6903   -1.5835   61.3872 C.ar    1  ZINC000543429378    0.1900
      5 C5        -12.1712   -0.3221   61.6486 C.ar    1  ZINC000543429378   -0.1600
      6 C6        -12.7137    0.4543   62.6546 C.ar    1  ZINC000543429378   -0.0600
      7 C7        -13.7730   -0.0218   63.4032 C.ar    1  ZINC000543429378   -0.2100
      8 C8        -14.2958   -1.2817   63.1463 C.ar    1  ZINC000543429378    0.1300
      9 O9        -15.3377   -1.7487   63.8835 O.3     1  ZINC000543429378   -0.3100
     10 C10       -15.8399   -0.8929   64.9118 C.3     1  ZINC000543429378    0.6000
     11 F11       -16.3124    0.2940   64.3414 F       1  ZINC000543429378   -0.1600
     12 F12       -16.8850   -1.5354   65.5842 F       1  ZINC000543429378   -0.1300
     13 F13       -14.8141   -0.5993   65.8165 F       1  ZINC000543429378   -0.1600
     14 C14       -13.7581   -2.0611   62.1344 C.ar    1  ZINC000543429378   -0.1300
     15 C15       -11.6514   -2.8210   57.9860 C.3     1  ZINC000543429378    0.0700
     16 H16       -10.9903   -3.5746   58.4136 H       1  ZINC000543429378    0.1200
     17 C17       -10.8607   -1.9248   56.9937 C.3     1  ZINC000543429378   -0.1200
     18 C18       -11.1936   -2.5786   55.6438 C.3     1  ZINC000543429378   -0.1000
     19 H19       -10.6022   -3.4809   55.4888 H       1  ZINC000543429378    0.0900
     20 C20       -11.1075   -1.6576   54.4386 C.3     1  ZINC000543429378   -0.1100
     21 C21       -11.5949   -2.4553   53.2186 C.3     1  ZINC000543429378   -0.1200
     22 C22       -13.0180   -2.9683   53.4181 C.3     1  ZINC000543429378   -0.1100
     23 C23       -13.1413   -3.7898   54.7121 C.3     1  ZINC000543429378   -0.0900
     24 C24       -12.6929   -2.9189   55.8626 C.3     1  ZINC000543429378    0.0700
     25 H25       -13.2580   -1.9869   55.8494 H       1  ZINC000543429378    0.0900
     26 N26       -12.7371   -3.4791   57.2132 N.3     1  ZINC000543429378   -0.4300
     27 C27       -13.9657   -3.2466   57.8068 C.ar    1  ZINC000543429378    0.5000
     28 N28       -14.7240   -2.2573   57.3577 N.ar    1  ZINC000543429378   -0.5300
     29 C29       -15.9035   -2.0087   57.9023 C.ar    1  ZINC000543429378    0.1800
     30 C30       -16.3423   -2.7975   58.9542 C.ar    1  ZINC000543429378   -0.2500
     31 C31       -15.5239   -3.8238   59.3990 C.ar    1  ZINC000543429378    0.1800
     32 N32       -14.3578   -4.0221   58.8069 N.ar    1  ZINC000543429378   -0.5300
     33 H33       -11.6879   -3.1988   60.5861 H       1  ZINC000543429378    0.4200
     34 H34       -11.3427    0.0520   61.0654 H       1  ZINC000543429378    0.1400
     35 H35       -12.3086    1.4348   62.8565 H       1  ZINC000543429378    0.1400
     36 H36       -14.1944    0.5870   64.1893 H       1  ZINC000543429378    0.1400
     37 H37       -14.1637   -3.0416   61.9331 H       1  ZINC000543429378    0.1500
     38 H38       -11.2189   -0.8959   57.0273 H       1  ZINC000543429378    0.0800
     39 H39        -9.7904   -1.9702   57.1953 H       1  ZINC000543429378    0.0900
     40 H40       -11.7449   -0.7867   54.5911 H       1  ZINC000543429378    0.0700
     41 H41       -10.0755   -1.3412   54.2866 H       1  ZINC000543429378    0.0700
     42 H42       -11.5681   -1.8124   52.3387 H       1  ZINC000543429378    0.0600
     43 H43       -10.9297   -3.3037   53.0586 H       1  ZINC000543429378    0.0600
     44 H44       -13.6994   -2.1189   53.4684 H       1  ZINC000543429378    0.0600
     45 H45       -13.2934   -3.5951   52.5700 H       1  ZINC000543429378    0.0700
     46 H46       -14.1772   -4.0950   54.8601 H       1  ZINC000543429378    0.0700
     47 H47       -12.4995   -4.6690   54.6556 H       1  ZINC000543429378    0.0700
     48 H48       -16.5170   -1.2006   57.5322 H       1  ZINC000543429378    0.1600
     49 H49       -17.3010   -2.6160   59.4173 H       1  ZINC000543429378    0.1400
     50 H50       -15.8362   -4.4565   60.2168 H       1  ZINC000543429378    0.1600
@<TRIPOS>BOND
     1     1     2    2
     2     2     3   am
     3     2    15    1
     4     3     4    1
     5     3    33    1
     6     4    14   ar
     7     4     5   ar
     8     5     6   ar
     9     5    34    1
    10     6     7   ar
    11     6    35    1
    12     7     8   ar
    13     7    36    1
    14     8     9    1
    15     8    14   ar
    16     9    10    1
    17    10    11    1
    18    10    12    1
    19    10    13    1
    20    14    37    1
    21    15    16    1
    22    15    26    1
    23    15    17    1
    24    17    18    1
    25    17    38    1
    26    17    39    1
    27    18    19    1
    28    18    24    1
    29    18    20    1
    30    20    21    1
    31    20    40    1
    32    20    41    1
    33    21    22    1
    34    21    42    1
    35    21    43    1
    36    22    23    1
    37    22    44    1
    38    22    45    1
    39    23    24    1
    40    23    46    1
    41    23    47    1
    42    24    25    1
    43    24    26    1
    44    26    27    1
    45    27    32   ar
    46    27    28   ar
    47    28    29   ar
    48    29    30   ar
    49    29    48    1
    50    30    31   ar
    51    30    49    1
    52    31    32   ar
    53    31    50    1
@<TRIPOS>SUBSTRUCTURE
     1 ZINC000543429378        1 TEMP              0 ****  ****    0 ROOT


##########                                Name:    ZINC000192150625
##########                DOCK_Rotatable_Bonds:                   5
##########                         Heavy_Atoms:                  28
##########                    Molecular_Weight:             377.443
##########                DOCK_Rotatable_Bonds:                   5
##########                       Formal_Charge:           0.0199997
##########                     HBond_Acceptors:                   6
##########                        HBond_Donors:                   1
##########                         Heavy_Atoms:                  28
##########                          Grid_Score:          -30.599934
##########                     Grid_vdw_energy:          -30.098143
##########                      Grid_es_energy:           -0.501791
##########           Internal_energy_repulsive:           12.338225

@<TRIPOS>MOLECULE
ZINC000192150625
 51 54 1 0 0
SMALL
USER_CHARGES


@<TRIPOS>ATOM
      1 C1        -10.3476    3.1637   64.4225 C.3     1  ZINC000192150625   -0.0800
      2 C2        -10.3046    1.8669   63.6559 C.2     1  ZINC000192150625    0.0400
      3 C3        -11.3155    1.3719   62.9291 C.2     1  ZINC000192150625   -0.1800
      4 C4        -12.6749    1.9909   62.7299 C.3     1  ZINC000192150625   -0.0800
      5 C5        -10.8325    0.1052   62.3655 C.ar    1  ZINC000192150625   -0.1000
      6 C6        -11.3917   -0.8681   61.5401 C.ar    1  ZINC000192150625   -0.0700
      7 C7        -10.6411   -1.9760   61.1859 C.ar    1  ZINC000192150625    0.1200
      8 N8        -11.1939   -2.9582   60.3574 N.am    1  ZINC000192150625   -0.6400
      9 C9        -10.6470   -3.2081   59.1511 C.2     1  ZINC000192150625    0.5100
     10 O10        -9.6748   -2.5811   58.7838 O.2     1  ZINC000192150625   -0.4900
     11 C11       -11.2372   -4.2567   58.2665 C.2     1  ZINC000192150625    0.5100
     12 O12       -10.6897   -5.3339   58.1536 O.2     1  ZINC000192150625   -0.5200
     13 N13       -12.3779   -4.0068   57.5936 N.am    1  ZINC000192150625   -0.5800
     14 C14       -13.0491   -2.7055   57.7154 C.3     1  ZINC000192150625    0.0500
     15 C15       -13.2672   -2.1300   56.3126 C.3     1  ZINC000192150625   -0.1200
     16 C16       -14.0240   -3.1501   55.4590 C.3     1  ZINC000192150625   -0.0500
     17 C17       -14.2703   -2.5738   54.0884 C.ar    1  ZINC000192150625   -0.0300
     18 C18       -13.2460   -2.4944   53.1575 C.ar    1  ZINC000192150625   -0.1700
     19 C19       -13.5093   -1.9598   51.9104 C.ar    1  ZINC000192150625    0.1000
     20 N20       -14.7168   -1.5281   51.6028 N.ar    1  ZINC000192150625   -0.4900
     21 C21       -15.7146   -1.5880   52.4630 C.ar    1  ZINC000192150625    0.1000
     22 C22       -15.5279   -2.1156   53.7266 C.ar    1  ZINC000192150625   -0.1700
     23 C23       -13.1928   -4.4288   55.3327 C.3     1  ZINC000192150625   -0.1200
     24 C24       -12.9707   -5.0283   56.7196 C.3     1  ZINC000192150625    0.1100
     25 C25        -9.3356   -2.1144   61.6532 C.ar    1  ZINC000192150625   -0.1100
     26 C26        -8.7773   -1.1556   62.4694 C.ar    1  ZINC000192150625   -0.0800
     27 C27        -9.5157   -0.0371   62.8350 C.ar    1  ZINC000192150625    0.0500
     28 O28        -9.2444    1.0425   63.5976 O.3     1  ZINC000192150625   -0.1900
     29 H29        -9.3903    3.3247   64.9182 H       1  ZINC000192150625    0.0800
     30 H30       -10.5434    3.9861   63.7346 H       1  ZINC000192150625    0.0900
     31 H31       -11.1403    3.1181   65.1693 H       1  ZINC000192150625    0.0900
     32 H32       -12.6534    2.6412   61.8553 H       1  ZINC000192150625    0.0700
     33 H33       -13.4140    1.2040   62.5795 H       1  ZINC000192150625    0.0700
     34 H34       -12.9406    2.5754   63.6108 H       1  ZINC000192150625    0.0700
     35 H35       -12.4038   -0.7591   61.1793 H       1  ZINC000192150625    0.1400
     36 H36       -11.9708   -3.4593   60.6509 H       1  ZINC000192150625    0.4300
     37 H37       -14.0114   -2.8356   58.2106 H       1  ZINC000192150625    0.0700
     38 H38       -12.4258   -2.0257   58.2964 H       1  ZINC000192150625    0.1600
     39 H39       -13.8492   -1.2110   56.3828 H       1  ZINC000192150625    0.0800
     40 H40       -12.3022   -1.9157   55.8532 H       1  ZINC000192150625    0.0700
     41 H41       -14.9782   -3.3827   55.9319 H       1  ZINC000192150625    0.0900
     42 H42       -12.2548   -2.8457   53.4036 H       1  ZINC000192150625    0.1300
     43 H43       -12.7168   -1.8945   51.1796 H       1  ZINC000192150625    0.1600
     44 H44       -16.6898   -1.2243   52.1752 H       1  ZINC000192150625    0.1600
     45 H45       -16.3491   -2.1623   54.4266 H       1  ZINC000192150625    0.1300
     46 H46       -13.7220   -5.1463   54.7053 H       1  ZINC000192150625    0.0800
     47 H47       -12.2286   -4.1930   54.8824 H       1  ZINC000192150625    0.0700
     48 H48       -12.2976   -5.8824   56.6450 H       1  ZINC000192150625    0.1000
     49 H49       -13.9255   -5.3482   57.1367 H       1  ZINC000192150625    0.0800
     50 H50        -8.7562   -2.9817   61.3730 H       1  ZINC000192150625    0.1400
     51 H51        -7.7645   -1.2734   62.8256 H       1  ZINC000192150625    0.1400
@<TRIPOS>BOND
     1     1     2    1
     2     1    29    1
     3     1    30    1
     4     1    31    1
     5     2    28    1
     6     2     3    2
     7     3     4    1
     8     3     5    1
     9     4    32    1
    10     4    33    1
    11     4    34    1
    12     5    27   ar
    13     5     6   ar
    14     6     7   ar
    15     6    35    1
    16     7     8    1
    17     7    25   ar
    18     8     9   am
    19     8    36    1
    20     9    10    2
    21     9    11    1
    22    11    12    2
    23    11    13   am
    24    13    24    1
    25    13    14    1
    26    14    15    1
    27    14    37    1
    28    14    38    1
    29    15    16    1
    30    15    39    1
    31    15    40    1
    32    16    17    1
    33    16    23    1
    34    16    41    1
    35    17    22   ar
    36    17    18   ar
    37    18    19   ar
    38    18    42    1
    39    19    20   ar
    40    19    43    1
    41    20    21   ar
    42    21    22   ar
    43    21    44    1
    44    22    45    1
    45    23    24    1
    46    23    46    1
    47    23    47    1
    48    24    48    1
    49    24    49    1
    50    25    26   ar
    51    25    50    1
    52    26    27   ar
    53    26    51    1
    54    27    28    1
@<TRIPOS>SUBSTRUCTURE
     1 ZINC000192150625        1 TEMP              0 ****  ****    0 ROOT


##########                                Name:    ZINC001058772245
##########                DOCK_Rotatable_Bonds:                  11
##########                         Heavy_Atoms:                  22
##########                    Molecular_Weight:             335.375
##########                DOCK_Rotatable_Bonds:                  11
##########                       Formal_Charge:          0.00999964
##########                     HBond_Acceptors:                   9
##########                        HBond_Donors:                   2
##########                         Heavy_Atoms:                  22
##########                          Grid_Score:          -30.599480
##########                     Grid_vdw_energy:          -30.032455
##########                      Grid_es_energy:           -0.567025
##########           Internal_energy_repulsive:           65.619690

@<TRIPOS>MOLECULE
ZINC001058772245
 41 41 1 0 0
SMALL
USER_CHARGES


@<TRIPOS>ATOM
      1 C1        -13.9890   -2.2177   52.8025 C.3     1  ZINC001058772245   -0.1700
      2 C2        -12.5828   -2.0784   53.3890 C.3     1  ZINC001058772245   -0.1400
      3 C3        -11.9289   -0.8049   52.8492 C.3     1  ZINC001058772245   -0.1500
      4 C4        -12.6706   -2.0000   54.8914 C.2     1  ZINC001058772245    0.5300
      5 O5        -12.4738   -0.9448   55.4560 O.2     1  ZINC001058772245   -0.5200
      6 N6        -12.9679   -3.1024   55.6076 N.am    1  ZINC001058772245   -0.5900
      7 C7        -13.2057   -4.3769   54.9255 C.3     1  ZINC001058772245    0.0800
      8 C8        -14.2365   -5.1907   55.7103 C.3     1  ZINC001058772245    0.0400
      9 O9        -13.5657   -6.0136   56.6668 O.3     1  ZINC001058772245   -0.5700
     10 C10       -13.0532   -3.0261   57.0681 C.3     1  ZINC001058772245    0.1100
     11 C11       -11.7272   -3.4810   57.6810 C.3     1  ZINC001058772245    0.1000
     12 N12       -11.3896   -2.6144   58.8129 N.am    1  ZINC001058772245   -0.7100
     13 C13       -10.1457   -2.6366   59.3311 C.2     1  ZINC001058772245    0.6000
     14 O14        -9.3028   -3.3751   58.8580 O.2     1  ZINC001058772245   -0.5300
     15 C15        -9.8068   -1.7668   60.4701 C.2     1  ZINC001058772245    0.0000
     16 C16       -10.1595   -0.4632   60.5353 C.2     1  ZINC001058772245   -0.2200
     17 S17        -9.5841    0.1912   62.0059 S.3     1  ZINC001058772245    0.2300
     18 C18        -8.9061   -1.3124   62.4487 C.2     1  ZINC001058772245    0.0000
     19 N19        -9.1272   -2.1935   61.5377 N.2     1  ZINC001058772245   -0.4400
     20 C20       -11.7412   -3.2923   52.9901 C.3     1  ZINC001058772245    0.2900
     21 F21       -11.0911   -3.0312   51.7791 F       1  ZINC001058772245   -0.1900
     22 F22       -10.7904   -3.5476   53.9841 F       1  ZINC001058772245   -0.2000
     23 H23       -13.9198   -2.5602   51.7701 H       1  ZINC001058772245    0.0800
     24 H24       -14.5568   -2.9409   53.3880 H       1  ZINC001058772245    0.0700
     25 H25       -14.4923   -1.2513   52.8318 H       1  ZINC001058772245    0.0900
     26 H26       -12.3641    0.0642   53.3426 H       1  ZINC001058772245    0.0800
     27 H27       -10.8572   -0.8354   53.0455 H       1  ZINC001058772245    0.0700
     28 H28       -12.0997   -0.7361   51.7748 H       1  ZINC001058772245    0.0900
     29 H29       -13.5820   -4.1863   53.9204 H       1  ZINC001058772245    0.0900
     30 H30       -12.2719   -4.9357   54.8639 H       1  ZINC001058772245    0.1200
     31 H31       -14.9169   -4.5138   56.2270 H       1  ZINC001058772245    0.0600
     32 H32       -14.8023   -5.8198   55.0230 H       1  ZINC001058772245    0.0700
     33 H33       -12.9381   -6.6376   56.2773 H       1  ZINC001058772245    0.3800
     34 H34       -13.2579   -1.9980   57.3669 H       1  ZINC001058772245    0.1000
     35 H35       -13.8569   -3.6733   57.4193 H       1  ZINC001058772245    0.0900
     36 H36       -11.8210   -4.5104   58.0268 H       1  ZINC001058772245    0.0700
     37 H37       -10.9399   -3.4203   56.9296 H       1  ZINC001058772245    0.0700
     38 H38       -12.0614   -2.0247   59.1895 H       1  ZINC001058772245    0.4100
     39 H39       -10.7140    0.0763   59.7817 H       1  ZINC001058772245    0.1900
     40 H40        -8.3696   -1.4986   63.3673 H       1  ZINC001058772245    0.2100
     41 H41       -12.3887   -4.1614   52.8748 H       1  ZINC001058772245    0.1200
@<TRIPOS>BOND
     1     1     2    1
     2     1    23    1
     3     1    24    1
     4     1    25    1
     5     2     3    1
     6     2     4    1
     7     2    20    1
     8     3    26    1
     9     3    27    1
    10     3    28    1
    11     4     5    2
    12     4     6   am
    13     6     7    1
    14     6    10    1
    15     7     8    1
    16     7    29    1
    17     7    30    1
    18     8     9    1
    19     8    31    1
    20     8    32    1
    21     9    33    1
    22    10    11    1
    23    10    34    1
    24    10    35    1
    25    11    12    1
    26    11    36    1
    27    11    37    1
    28    12    13   am
    29    12    38    1
    30    13    14    2
    31    13    15    1
    32    15    19    1
    33    15    16    2
    34    16    17    1
    35    16    39    1
    36    17    18    1
    37    18    19    2
    38    18    40    1
    39    20    21    1
    40    20    22    1
    41    20    41    1
@<TRIPOS>SUBSTRUCTURE
     1 ZINC001058772245        1 TEMP              0 ****  ****    0 ROOT


##########                                Name:    ZINC001091652821
##########                DOCK_Rotatable_Bonds:                   4
##########                         Heavy_Atoms:                  24
##########                    Molecular_Weight:             345.465
##########                DOCK_Rotatable_Bonds:                   4
##########                       Formal_Charge:          -0.0199997
##########                     HBond_Acceptors:                   6
##########                        HBond_Donors:                   0
##########                         Heavy_Atoms:                  24
##########                          Grid_Score:          -30.581963
##########                     Grid_vdw_energy:          -30.069178
##########                      Grid_es_energy:           -0.512785
##########           Internal_energy_repulsive:            5.079480

@<TRIPOS>MOLECULE
ZINC001091652821
 47 50 1 0 0
SMALL
USER_CHARGES


@<TRIPOS>ATOM
      1 C1        -15.3830   -0.4223   48.5483 C.3     1  ZINC001091652821   -0.1000
      2 C2        -14.3113   -0.3377   49.6043 C.2     1  ZINC001091652821   -0.1200
      3 C3        -13.9120    0.8260   50.1305 C.2     1  ZINC001091652821   -0.2400
      4 S4        -12.6894    0.5816   51.2952 S.3     1  ZINC001091652821    0.2100
      5 C5        -12.7343   -1.1585   51.0475 C.2     1  ZINC001091652821   -0.2700
      6 C6        -11.8993   -2.1390   51.7476 C.2     1  ZINC001091652821    0.6100
      7 O7        -10.7212   -2.2489   51.4628 O.2     1  ZINC001091652821   -0.5200
      8 N8        -12.4364   -2.9189   52.7067 N.am    1  ZINC001091652821   -0.6200
      9 C9        -11.7379   -3.9409   53.5033 C.3     1  ZINC001091652821    0.0900
     10 C10       -12.4305   -3.9700   54.8757 C.3     1  ZINC001091652821   -0.0900
     11 H11       -12.5271   -4.9840   55.2638 H       1  ZINC001091652821    0.1100
     12 C12       -11.6638   -3.0485   55.8473 C.3     1  ZINC001091652821    0.0400
     13 N13       -12.7226   -2.2951   56.5666 N.3     1  ZINC001091652821   -0.5000
     14 C14       -12.1845   -1.0603   57.1526 C.3     1  ZINC001091652821    0.1200
     15 C15       -11.0290   -1.3967   58.0595 C.2     1  ZINC001091652821    0.0000
     16 C16        -9.9270   -0.6522   58.2490 C.2     1  ZINC001091652821   -0.0800
     17 O17        -9.1508   -1.3103   59.1322 O.3     1  ZINC001091652821   -0.2000
     18 C18        -9.7843   -2.4415   59.4692 C.2     1  ZINC001091652821    0.1900
     19 C19        -9.2729   -3.4795   60.4347 C.3     1  ZINC001091652821   -0.0600
     20 N20       -10.9177   -2.4935   58.8296 N.2     1  ZINC001091652821   -0.4700
     21 C21       -13.7302   -1.9917   55.5184 C.3     1  ZINC001091652821    0.0400
     22 C22       -13.8088   -3.2959   54.6519 C.3     1  ZINC001091652821   -0.0700
     23 C23       -14.9895   -4.1821   55.0537 C.3     1  ZINC001091652821   -0.1300
     24 C24       -13.8348   -2.9106   53.1666 C.3     1  ZINC001091652821    0.1200
     25 C25       -13.6765   -1.4510   50.1019 C.2     1  ZINC001091652821   -0.0500
     26 H26       -16.3573   -0.5234   49.0266 H       1  ZINC001091652821    0.0700
     27 H27       -15.3681    0.4835   47.9421 H       1  ZINC001091652821    0.0700
     28 H28       -15.1989   -1.2882   47.9123 H       1  ZINC001091652821    0.0700
     29 H29       -14.3101    1.7913   49.8544 H       1  ZINC001091652821    0.1700
     30 H30       -11.8234   -4.9144   53.0205 H       1  ZINC001091652821    0.0800
     31 H31       -10.6883   -3.6714   53.6197 H       1  ZINC001091652821    0.0800
     32 H32       -11.0761   -3.6408   56.5486 H       1  ZINC001091652821    0.0800
     33 H33       -11.0203   -2.3645   55.2940 H       1  ZINC001091652821    0.0500
     34 H34       -11.8410   -0.3999   56.3563 H       1  ZINC001091652821    0.0500
     35 H35       -12.9644   -0.5610   57.7276 H       1  ZINC001091652821    0.1000
     36 H36        -9.7049    0.2956   57.7811 H       1  ZINC001091652821    0.2100
     37 H37        -8.3019   -3.1695   60.8210 H       1  ZINC001091652821    0.0900
     38 H38        -9.9758   -3.5846   61.2612 H       1  ZINC001091652821    0.1000
     39 H39        -9.1711   -4.4353   59.9206 H       1  ZINC001091652821    0.1000
     40 H40       -14.7002   -1.7875   55.9717 H       1  ZINC001091652821    0.0900
     41 H41       -13.4065   -1.1443   54.9141 H       1  ZINC001091652821    0.0500
     42 H42       -15.9209   -3.6359   54.9045 H       1  ZINC001091652821    0.0600
     43 H43       -14.9937   -5.0823   54.4391 H       1  ZINC001091652821    0.0600
     44 H44       -14.8950   -4.4593   56.1036 H       1  ZINC001091652821    0.0700
     45 H45       -14.2445   -1.9075   53.0474 H       1  ZINC001091652821    0.0900
     46 H46       -14.4321   -3.6284   52.6044 H       1  ZINC001091652821    0.0800
     47 H47       -13.8950   -2.4560   49.7725 H       1  ZINC001091652821    0.1500
@<TRIPOS>BOND
     1     1     2    1
     2     1    26    1
     3     1    27    1
     4     1    28    1
     5     2    25    1
     6     2     3    2
     7     3     4    1
     8     3    29    1
     9     4     5    1
    10     5     6    1
    11     5    25    2
    12     6     7    2
    13     6     8   am
    14     8    24    1
    15     8     9    1
    16     9    10    1
    17     9    30    1
    18     9    31    1
    19    10    11    1
    20    10    22    1
    21    10    12    1
    22    12    13    1
    23    12    32    1
    24    12    33    1
    25    13    14    1
    26    13    21    1
    27    14    15    1
    28    14    34    1
    29    14    35    1
    30    15    20    1
    31    15    16    2
    32    16    17    1
    33    16    36    1
    34    17    18    1
    35    18    19    1
    36    18    20    2
    37    19    37    1
    38    19    38    1
    39    19    39    1
    40    21    22    1
    41    21    40    1
    42    21    41    1
    43    22    23    1
    44    22    24    1
    45    23    42    1
    46    23    43    1
    47    23    44    1
    48    24    45    1
    49    24    46    1
    50    25    47    1
@<TRIPOS>SUBSTRUCTURE
     1 ZINC001091652821        1 TEMP              0 ****  ****    0 ROOT


##########                                Name:    ZINC000426567005
##########                DOCK_Rotatable_Bonds:                   9
##########                         Heavy_Atoms:                  31
##########                    Molecular_Weight:             417.467
##########                DOCK_Rotatable_Bonds:                   9
##########                       Formal_Charge:        -2.23517e-07
##########                     HBond_Acceptors:                   8
##########                        HBond_Donors:                   4
##########                         Heavy_Atoms:                  31
##########                          Grid_Score:          -30.503889
##########                     Grid_vdw_energy:          -29.570581
##########                      Grid_es_energy:           -0.933307
##########           Internal_energy_repulsive:           14.270463

@<TRIPOS>MOLECULE
ZINC000426567005
 54 57 1 0 0
SMALL
USER_CHARGES


@<TRIPOS>ATOM
      1 O1        -11.5503   -2.9882   55.3204 O.2     1  ZINC000426567005   -0.4900
      2 C2        -12.0604   -2.0548   55.9053 C.2     1  ZINC000426567005    0.5200
      3 N3        -12.9727   -1.2849   55.2797 N.am    1  ZINC000426567005   -0.6000
      4 C4        -13.3276   -1.5580   53.9540 C.2     1  ZINC000426567005    0.3000
      5 N5        -13.0814   -2.6712   53.3033 N.2     1  ZINC000426567005   -0.3100
      6 N6        -13.5980   -2.5430   52.0077 N.pl3   1  ZINC000426567005   -0.4600
      7 C7        -14.1609   -1.3207   51.9007 C.2     1  ZINC000426567005    0.1100
      8 C8        -14.8384   -0.7601   50.6768 C.3     1  ZINC000426567005   -0.0300
      9 C9        -13.7861   -0.2864   49.6438 C.3     1  ZINC000426567005   -0.1200
     10 C10       -14.5713   -0.3347   48.3096 C.3     1  ZINC000426567005   -0.1300
     11 C11       -15.4519   -1.5951   48.4341 C.3     1  ZINC000426567005   -0.1300
     12 C12       -15.6218   -1.8657   49.9393 C.3     1  ZINC000426567005   -0.1200
     13 C13       -14.0151   -0.6913   53.0885 C.2     1  ZINC000426567005   -0.2600
     14 C14       -11.6818   -1.7635   57.3194 C.2     1  ZINC000426567005    0.5200
     15 O15       -12.5215   -1.8110   58.1946 O.2     1  ZINC000426567005   -0.4900
     16 N16       -10.4076   -1.4476   57.6245 N.am    1  ZINC000426567005   -0.6400
     17 C17       -10.0543   -1.1758   58.9440 C.ar    1  ZINC000426567005    0.1700
     18 C18        -9.9526    0.1426   59.3781 C.ar    1  ZINC000426567005   -0.1300
     19 C19        -9.6037    0.4147   60.6816 C.ar    1  ZINC000426567005   -0.0300
     20 C20        -9.3520   -0.6349   61.5697 C.ar    1  ZINC000426567005   -0.1500
     21 C21        -8.9783   -0.3469   62.9680 C.2     1  ZINC000426567005    0.5600
     22 O22        -8.6506   -1.2537   63.7087 O.2     1  ZINC000426567005   -0.5100
     23 N23        -9.0002    0.9213   63.4239 N.am    1  ZINC000426567005   -0.6700
     24 C24        -8.6460    1.1942   64.7489 C.ar    1  ZINC000426567005    0.1400
     25 C25        -9.6201    1.2188   65.7387 C.ar    1  ZINC000426567005   -0.1500
     26 C26        -9.2669    1.4881   67.0465 C.ar    1  ZINC000426567005   -0.1000
     27 C27        -7.9452    1.7331   67.3708 C.ar    1  ZINC000426567005   -0.1300
     28 C28        -6.9730    1.7098   66.3877 C.ar    1  ZINC000426567005   -0.1000
     29 C29        -7.3186    1.4354   65.0790 C.ar    1  ZINC000426567005   -0.1200
     30 C30        -9.4555   -1.9578   61.1308 C.ar    1  ZINC000426567005   -0.0600
     31 C31        -9.8095   -2.2232   59.8272 C.ar    1  ZINC000426567005   -0.1400
     32 H32       -13.3834   -0.5415   55.7484 H       1  ZINC000426567005    0.4300
     33 H33       -13.5582   -3.2151   51.3093 H       1  ZINC000426567005    0.4400
     34 H34       -15.5024    0.0595   50.9513 H       1  ZINC000426567005    0.1100
     35 H35       -13.4595    0.7301   49.8633 H       1  ZINC000426567005    0.0800
     36 H36       -12.9367   -0.9689   49.6169 H       1  ZINC000426567005    0.0700
     37 H37       -15.1917    0.5547   48.1996 H       1  ZINC000426567005    0.0700
     38 H38       -13.8862   -0.4296   47.4670 H       1  ZINC000426567005    0.0700
     39 H39       -16.4243   -1.4182   47.9745 H       1  ZINC000426567005    0.0700
     40 H40       -14.9609   -2.4425   47.9555 H       1  ZINC000426567005    0.0700
     41 H41       -15.2131   -2.8443   50.1912 H       1  ZINC000426567005    0.0600
     42 H42       -16.6766   -1.8200   50.2102 H       1  ZINC000426567005    0.0700
     43 H43       -14.3596    0.3040   53.3271 H       1  ZINC000426567005    0.1700
     44 H44        -9.7365   -1.4096   56.9251 H       1  ZINC000426567005    0.4300
     45 H45       -10.1473    0.9532   58.6915 H       1  ZINC000426567005    0.1500
     46 H46        -9.5242    1.4379   61.0177 H       1  ZINC000426567005    0.1400
     47 H47        -9.2617    1.6446   62.8329 H       1  ZINC000426567005    0.4100
     48 H48       -10.6526    1.0278   65.4860 H       1  ZINC000426567005    0.1300
     49 H49       -10.0239    1.5077   67.8165 H       1  ZINC000426567005    0.1300
     50 H50        -7.6716    1.9435   68.3943 H       1  ZINC000426567005    0.1200
     51 H51        -5.9417    1.9022   66.6442 H       1  ZINC000426567005    0.1300
     52 H52        -6.5589    1.4170   64.3116 H       1  ZINC000426567005    0.1300
     53 H53        -9.2613   -2.7710   61.8144 H       1  ZINC000426567005    0.1300
     54 H54        -9.8897   -3.2452   59.4874 H       1  ZINC000426567005    0.1400
@<TRIPOS>BOND
     1     1     2    2
     2     2     3   am
     3     2    14    1
     4     3     4    1
     5     3    32    1
     6     4    13    1
     7     4     5    2
     8     5     6    1
     9     6     7    1
    10     6    33    1
    11     7     8    1
    12     7    13    2
    13     8    12    1
    14     8     9    1
    15     8    34    1
    16     9    10    1
    17     9    35    1
    18     9    36    1
    19    10    11    1
    20    10    37    1
    21    10    38    1
    22    11    12    1
    23    11    39    1
    24    11    40    1
    25    12    41    1
    26    12    42    1
    27    13    43    1
    28    14    15    2
    29    14    16   am
    30    16    17    1
    31    16    44    1
    32    17    31   ar
    33    17    18   ar
    34    18    19   ar
    35    18    45    1
    36    19    20   ar
    37    19    46    1
    38    20    21    1
    39    20    30   ar
    40    21    22    2
    41    21    23   am
    42    23    24    1
    43    23    47    1
    44    24    29   ar
    45    24    25   ar
    46    25    26   ar
    47    25    48    1
    48    26    27   ar
    49    26    49    1
    50    27    28   ar
    51    27    50    1
    52    28    29   ar
    53    28    51    1
    54    29    52    1
    55    30    31   ar
    56    30    53    1
    57    31    54    1
@<TRIPOS>SUBSTRUCTURE
     1 ZINC000426567005        1 TEMP              0 ****  ****    0 ROOT


##########                                Name:    ZINC001708427409
##########                DOCK_Rotatable_Bonds:                   6
##########                         Heavy_Atoms:                  24
##########                    Molecular_Weight:             334.505
##########                DOCK_Rotatable_Bonds:                   6
##########                       Formal_Charge:          -0.0200006
##########                     HBond_Acceptors:                   5
##########                        HBond_Donors:                   1
##########                         Heavy_Atoms:                  24
##########                          Grid_Score:          -30.479664
##########                     Grid_vdw_energy:          -28.721970
##########                      Grid_es_energy:           -1.757695
##########           Internal_energy_repulsive:           20.970049

@<TRIPOS>MOLECULE
ZINC001708427409
 58 60 1 0 0
SMALL
USER_CHARGES


@<TRIPOS>ATOM
      1 C1        -11.0793    2.6566   59.7560 C.3     1  ZINC001708427409   -0.1500
      2 C2        -10.2801    2.6460   58.4515 C.3     1  ZINC001708427409   -0.1200
      3 C3         -9.4879    1.3410   58.3493 C.3     1  ZINC001708427409    0.0000
      4 H4         -9.2439    0.9848   59.3502 H       1  ZINC001708427409    0.0800
      5 C5         -8.1965    1.5883   57.5671 C.3     1  ZINC001708427409   -0.1400
      6 C6        -10.3170    0.3046   57.6355 C.2     1  ZINC001708427409    0.1800
      7 N7        -10.6379    0.3082   56.3726 N.2     1  ZINC001708427409   -0.2800
      8 N8        -11.3523   -0.7239   56.0966 N.2     1  ZINC001708427409   -0.3200
      9 C9        -11.5270   -1.4473   57.1773 C.2     1  ZINC001708427409    0.3600
     10 N10       -12.2416   -2.6311   57.2697 N.3     1  ZINC001708427409   -0.4200
     11 C11       -11.9107   -3.5438   56.1403 C.3     1  ZINC001708427409    0.0400
     12 C12       -13.1190   -4.5006   56.0401 C.3     1  ZINC001708427409   -0.0900
     13 H13       -12.9071   -5.4340   56.5615 H       1  ZINC001708427409    0.0900
     14 C14       -13.4581   -4.7768   54.5740 C.3     1  ZINC001708427409   -0.1500
     15 C15       -14.2863   -3.7484   56.7336 C.3     1  ZINC001708427409   -0.0800
     16 H16       -15.1361   -3.6360   56.0605 H       1  ZINC001708427409    0.0900
     17 C17       -14.6713   -4.5589   57.9716 C.3     1  ZINC001708427409   -0.1100
     18 C18       -15.5895   -3.7285   58.8679 C.3     1  ZINC001708427409   -0.1200
     19 C19       -14.7984   -2.5343   59.3972 C.3     1  ZINC001708427409   -0.1100
     20 C20       -14.3095   -1.6673   58.2548 C.3     1  ZINC001708427409   -0.1000
     21 C21       -13.6904   -2.3905   57.0957 C.3     1  ZINC001708427409    0.1000
     22 H22       -13.7943   -1.7457   56.2230 H       1  ZINC001708427409    0.0600
     23 N23       -10.8670   -0.8170   58.1917 N.pl3   1  ZINC001708427409   -0.4700
     24 C24       -10.7751   -1.2473   59.5891 C.3     1  ZINC001708427409    0.0800
     25 C25        -9.5180   -2.0985   59.7789 C.3     1  ZINC001708427409    0.1200
     26 C26        -9.4307   -2.5614   61.2347 C.3     1  ZINC001708427409   -0.1800
     27 C27        -9.5847   -3.3190   58.8588 C.3     1  ZINC001708427409   -0.1500
     28 O28        -8.3631   -1.3211   59.4562 O.3     1  ZINC001708427409   -0.5400
     29 H29       -10.3958    2.5794   60.6016 H       1  ZINC001708427409    0.0600
     30 H30       -11.6436    3.5864   59.8288 H       1  ZINC001708427409    0.0600
     31 H31       -11.7679    1.8118   59.7671 H       1  ZINC001708427409    0.0500
     32 H32       -10.9636    2.7233   57.6059 H       1  ZINC001708427409    0.0700
     33 H33        -9.5915    3.4908   58.4403 H       1  ZINC001708427409    0.0800
     34 H34        -7.5968    2.3378   58.0833 H       1  ZINC001708427409    0.0700
     35 H35        -7.6321    0.6585   57.4943 H       1  ZINC001708427409    0.0500
     36 H36        -8.4404    1.9444   56.5662 H       1  ZINC001708427409    0.0700
     37 H37       -11.7971   -2.9779   55.2156 H       1  ZINC001708427409    0.0600
     38 H38       -11.0008   -4.1030   56.3583 H       1  ZINC001708427409    0.0800
     39 H39       -12.6092   -5.2586   54.0891 H       1  ZINC001708427409    0.0600
     40 H40       -14.3276   -5.4319   54.5194 H       1  ZINC001708427409    0.0600
     41 H41       -13.6794   -3.8366   54.0689 H       1  ZINC001708427409    0.0600
     42 H42       -15.1899   -5.4669   57.6635 H       1  ZINC001708427409    0.0600
     43 H43       -13.7707   -4.8267   58.5241 H       1  ZINC001708427409    0.0700
     44 H44       -16.4435   -3.3751   58.2901 H       1  ZINC001708427409    0.0600
     45 H45       -15.9353   -4.3379   59.7028 H       1  ZINC001708427409    0.0600
     46 H46       -15.4382   -1.9408   60.0502 H       1  ZINC001708427409    0.0600
     47 H47       -13.9415   -2.8950   59.9662 H       1  ZINC001708427409    0.0600
     48 H48       -15.1559   -1.0955   57.8741 H       1  ZINC001708427409    0.0600
     49 H49       -13.5780   -0.9626   58.6501 H       1  ZINC001708427409    0.0700
     50 H50       -10.7223   -0.3718   60.2362 H       1  ZINC001708427409    0.0900
     51 H51       -11.6553   -1.8367   59.8463 H       1  ZINC001708427409    0.1000
     52 H52       -10.3115   -3.1544   61.4808 H       1  ZINC001708427409    0.0700
     53 H53        -8.5350   -3.1678   61.3699 H       1  ZINC001708427409    0.0700
     54 H54        -9.3832   -1.6919   61.8902 H       1  ZINC001708427409    0.0600
     55 H55        -9.7299   -2.9907   57.8296 H       1  ZINC001708427409    0.0700
     56 H56        -8.6537   -3.8812   58.9328 H       1  ZINC001708427409    0.0700
     57 H57       -10.4179   -3.9548   59.1583 H       1  ZINC001708427409    0.0700
     58 H58        -7.5251   -1.7745   59.6215 H       1  ZINC001708427409    0.3800
@<TRIPOS>BOND
     1     1     2    1
     2     1    29    1
     3     1    30    1
     4     1    31    1
     5     2     3    1
     6     2    32    1
     7     2    33    1
     8     3     4    1
     9     3     5    1
    10     3     6    1
    11     5    34    1
    12     5    35    1
    13     5    36    1
    14     6    23    1
    15     6     7    2
    16     7     8    1
    17     8     9    2
    18     9    10    1
    19     9    23    1
    20    10    21    1
    21    10    11    1
    22    11    12    1
    23    11    37    1
    24    11    38    1
    25    12    13    1
    26    12    14    1
    27    12    15    1
    28    14    39    1
    29    14    40    1
    30    14    41    1
    31    15    16    1
    32    15    21    1
    33    15    17    1
    34    17    18    1
    35    17    42    1
    36    17    43    1
    37    18    19    1
    38    18    44    1
    39    18    45    1
    40    19    20    1
    41    19    46    1
    42    19    47    1
    43    20    21    1
    44    20    48    1
    45    20    49    1
    46    21    22    1
    47    23    24    1
    48    24    25    1
    49    24    50    1
    50    24    51    1
    51    25    26    1
    52    25    27    1
    53    25    28    1
    54    26    52    1
    55    26    53    1
    56    26    54    1
    57    27    55    1
    58    27    56    1
    59    27    57    1
    60    28    58    1
@<TRIPOS>SUBSTRUCTURE
     1 ZINC001708427409        1 TEMP              0 ****  ****    0 ROOT


##########                                Name:    ZINC000496437542
##########                DOCK_Rotatable_Bonds:                   7
##########                         Heavy_Atoms:                  24
##########                    Molecular_Weight:             338.447
##########                DOCK_Rotatable_Bonds:                   7
##########                       Formal_Charge:           0.0400002
##########                     HBond_Acceptors:                   6
##########                        HBond_Donors:                   1
##########                         Heavy_Atoms:                  24
##########                          Grid_Score:          -30.477680
##########                     Grid_vdw_energy:          -29.743628
##########                      Grid_es_energy:           -0.734053
##########           Internal_energy_repulsive:           18.801144

@<TRIPOS>MOLECULE
ZINC000496437542
 54 55 1 0 0
SMALL
USER_CHARGES


@<TRIPOS>ATOM
      1 C1         -9.4387    2.2378   55.1568 C.3     1  ZINC000496437542   -0.1800
      2 C2         -9.5149    1.4539   53.8450 C.3     1  ZINC000496437542    0.1400
      3 C3        -10.8359    1.7673   53.1396 C.3     1  ZINC000496437542   -0.1800
      4 C4         -8.3468    1.8556   52.9423 C.3     1  ZINC000496437542   -0.1400
      5 O5         -9.4422    0.0313   54.1265 O.3     1  ZINC000496437542   -0.3600
      6 C6         -9.8783   -0.8050   53.1657 C.2     1  ZINC000496437542    0.6600
      7 O7         -9.4266   -0.7258   52.0404 O.2     1  ZINC000496437542   -0.5600
      8 N8        -10.8158   -1.7299   53.4520 N.am    1  ZINC000496437542   -0.6000
      9 C9        -11.3079   -2.6547   52.4186 C.3     1  ZINC000496437542    0.0800
     10 C10       -11.2274   -4.0829   52.9697 C.3     1  ZINC000496437542    0.0500
     11 O11       -11.8881   -4.1366   54.2363 O.3     1  ZINC000496437542   -0.3700
     12 C12       -11.2932   -3.3129   55.2421 C.3     1  ZINC000496437542    0.0700
     13 H13       -10.2484   -3.5949   55.3726 H       1  ZINC000496437542    0.0700
     14 C14       -12.0415   -3.4991   56.5636 C.3     1  ZINC000496437542    0.1300
     15 N15       -11.6863   -2.4153   57.4829 N.am    1  ZINC000496437542   -0.7200
     16 C16       -10.8022   -2.6363   58.4759 C.2     1  ZINC000496437542    0.5600
     17 O17       -10.2983   -3.7353   58.6078 O.2     1  ZINC000496437542   -0.5400
     18 C18       -10.4469   -1.5485   59.4002 C.2     1  ZINC000496437542   -0.1900
     19 C19       -11.2762   -0.5429   59.5778 C.2     1  ZINC000496437542   -0.0600
     20 C20       -10.9203    0.5823   60.5263 C.3     1  ZINC000496437542   -0.1000
     21 C21       -11.0122    0.0577   61.9610 C.3     1  ZINC000496437542   -0.1100
     22 C22        -9.7127   -0.6076   62.3762 C.3     1  ZINC000496437542   -0.1200
     23 C23        -9.4090   -1.8870   61.6182 C.3     1  ZINC000496437542   -0.1200
     24 C24        -9.1309   -1.5944   60.1475 C.3     1  ZINC000496437542   -0.0800
     25 C25       -11.3731   -1.8491   54.8087 C.3     1  ZINC000496437542    0.1000
     26 H26       -10.2710    1.9516   55.7999 H       1  ZINC000496437542    0.0900
     27 H27        -8.4977    2.0145   55.6593 H       1  ZINC000496437542    0.0600
     28 H28        -9.4933    3.3057   54.9455 H       1  ZINC000496437542    0.0700
     29 H29       -10.8905    2.8352   52.9283 H       1  ZINC000496437542    0.0700
     30 H30       -10.8902    1.2089   52.2050 H       1  ZINC000496437542    0.0600
     31 H31       -11.6681    1.4811   53.7827 H       1  ZINC000496437542    0.0900
     32 H32        -7.4057    1.6323   53.4449 H       1  ZINC000496437542    0.0700
     33 H33        -8.4011    1.2971   52.0078 H       1  ZINC000496437542    0.0700
     34 H34        -8.4014    2.9236   52.7311 H       1  ZINC000496437542    0.0800
     35 H35       -12.3422   -2.4138   52.1728 H       1  ZINC000496437542    0.0800
     36 H36       -10.6886   -2.5704   51.5255 H       1  ZINC000496437542    0.1000
     37 H37       -11.7137   -4.7689   52.2761 H       1  ZINC000496437542    0.1100
     38 H38       -10.1824   -4.3677   53.0919 H       1  ZINC000496437542    0.0600
     39 H39       -13.1157   -3.4813   56.3786 H       1  ZINC000496437542    0.0900
     40 H40       -11.7650   -4.4562   57.0060 H       1  ZINC000496437542    0.0800
     41 H41       -12.0873   -1.5384   57.3770 H       1  ZINC000496437542    0.4000
     42 H42       -12.2150   -0.5196   59.0443 H       1  ZINC000496437542    0.1300
     43 H43        -9.9044    0.9228   60.3254 H       1  ZINC000496437542    0.0800
     44 H44       -11.6189    1.4082   60.3931 H       1  ZINC000496437542    0.0800
     45 H45       -11.2203    0.8893   62.6342 H       1  ZINC000496437542    0.0700
     46 H46       -11.8233   -0.6675   62.0265 H       1  ZINC000496437542    0.0700
     47 H47        -8.8951    0.0949   62.2145 H       1  ZINC000496437542    0.0600
     48 H48        -9.7642   -0.8376   63.4404 H       1  ZINC000496437542    0.0600
     49 H49        -8.5359   -2.3672   62.0603 H       1  ZINC000496437542    0.0700
     50 H50       -10.2635   -2.5596   61.6930 H       1  ZINC000496437542    0.0600
     51 H51        -8.5011   -2.3804   59.7306 H       1  ZINC000496437542    0.0700
     52 H52        -8.6286   -0.6314   60.0545 H       1  ZINC000496437542    0.0800
     53 H53       -10.7993   -1.2301   55.4986 H       1  ZINC000496437542    0.1100
     54 H54       -12.4135   -1.5244   54.8021 H       1  ZINC000496437542    0.0900
@<TRIPOS>BOND
     1     1     2    1
     2     1    26    1
     3     1    27    1
     4     1    28    1
     5     2     3    1
     6     2     4    1
     7     2     5    1
     8     3    29    1
     9     3    30    1
    10     3    31    1
    11     4    32    1
    12     4    33    1
    13     4    34    1
    14     5     6    1
    15     6     7    2
    16     6     8   am
    17     8    25    1
    18     8     9    1
    19     9    10    1
    20     9    35    1
    21     9    36    1
    22    10    11    1
    23    10    37    1
    24    10    38    1
    25    11    12    1
    26    12    13    1
    27    12    14    1
    28    12    25    1
    29    14    15    1
    30    14    39    1
    31    14    40    1
    32    15    16   am
    33    15    41    1
    34    16    17    2
    35    16    18    1
    36    18    24    1
    37    18    19    2
    38    19    20    1
    39    19    42    1
    40    20    21    1
    41    20    43    1
    42    20    44    1
    43    21    22    1
    44    21    45    1
    45    21    46    1
    46    22    23    1
    47    22    47    1
    48    22    48    1
    49    23    24    1
    50    23    49    1
    51    23    50    1
    52    24    51    1
    53    24    52    1
    54    25    53    1
    55    25    54    1
@<TRIPOS>SUBSTRUCTURE
     1 ZINC000496437542        1 TEMP              0 ****  ****    0 ROOT


##########                                Name:    ZINC000750807956
##########                DOCK_Rotatable_Bonds:                  11
##########                         Heavy_Atoms:                  26
##########                    Molecular_Weight:             368.473
##########                DOCK_Rotatable_Bonds:                  11
##########                       Formal_Charge:        -8.12113e-07
##########                     HBond_Acceptors:                   7
##########                        HBond_Donors:                   1
##########                         Heavy_Atoms:                  26
##########                          Grid_Score:          -30.477451
##########                     Grid_vdw_energy:          -29.264572
##########                      Grid_es_energy:           -1.212878
##########           Internal_energy_repulsive:           97.162773

@<TRIPOS>MOLECULE
ZINC000750807956
 58 59 1 0 0
SMALL
USER_CHARGES


@<TRIPOS>ATOM
      1 C1        -12.8157   -0.1395   52.5934 C.3     1  ZINC000750807956   -0.1500
      2 C2        -11.6908    0.8652   52.8506 C.3     1  ZINC000750807956    0.0700
      3 O3        -11.2786    0.7851   54.2406 O.3     1  ZINC000750807956   -0.3600
      4 C4         -9.9630    0.8719   54.4922 C.2     1  ZINC000750807956    0.4800
      5 O5         -9.2020    0.0643   54.0141 O.2     1  ZINC000750807956   -0.4900
      6 C6         -9.4352    1.9765   55.3708 C.3     1  ZINC000750807956    0.1600
      7 H7        -10.1247    2.8205   55.3508 H       1  ZINC000750807956    0.1000
      8 C8         -8.0609    2.4242   54.8632 C.3     1  ZINC000750807956   -0.1300
      9 C9         -7.4696    3.4458   55.8373 C.3     1  ZINC000750807956   -0.1200
     10 C10        -7.2892    2.7975   57.2118 C.3     1  ZINC000750807956   -0.1400
     11 C11        -8.6548    2.3541   57.7460 C.3     1  ZINC000750807956    0.1100
     12 N12        -9.2968    1.4862   56.7489 N.am    1  ZINC000750807956   -0.6100
     13 C13        -9.7452    0.2622   57.0910 C.2     1  ZINC000750807956    0.5100
     14 O14       -10.2733   -0.4447   56.2589 O.2     1  ZINC000750807956   -0.5000
     15 C15        -9.5904   -0.2283   58.5075 C.3     1  ZINC000750807956   -0.1400
     16 C16        -9.9708   -1.7086   58.5791 C.3     1  ZINC000750807956    0.2100
     17 H17        -9.8843   -2.1542   57.5882 H       1  ZINC000750807956    0.1000
     18 N18       -11.3511   -1.8357   59.0530 N.am    1  ZINC000750807956   -0.7000
     19 C19       -12.2692   -2.4649   58.2930 C.2     1  ZINC000750807956    0.6600
     20 O20       -11.9518   -2.9279   57.2153 O.2     1  ZINC000750807956   -0.5600
     21 O21       -13.5382   -2.5803   58.7277 O.3     1  ZINC000750807956   -0.3700
     22 C22       -14.4908   -3.2004   57.8241 C.3     1  ZINC000750807956    0.1400
     23 C23       -14.0555   -4.6378   57.5321 C.3     1  ZINC000750807956   -0.1800
     24 C24       -15.8770   -3.2090   58.4716 C.3     1  ZINC000750807956   -0.1400
     25 C25       -14.5436   -2.4079   56.5164 C.3     1  ZINC000750807956   -0.1800
     26 C26        -9.0308   -2.4304   59.5468 C.3     1  ZINC000750807956   -0.1800
     27 C27        -9.5385   -2.6843   60.9676 C.3     1  ZINC000750807956   -0.1700
     28 C28        -9.4147   -3.8465   59.9803 C.3     1  ZINC000750807956   -0.1800
     29 H29       -13.6639    0.0919   53.2378 H       1  ZINC000750807956    0.0600
     30 H30       -13.1250   -0.0793   51.5500 H       1  ZINC000750807956    0.0800
     31 H31       -12.4595   -1.1469   52.8093 H       1  ZINC000750807956    0.0700
     32 H32       -10.8426    0.6338   52.2062 H       1  ZINC000750807956    0.0700
     33 H33       -12.0469    1.8725   52.6347 H       1  ZINC000750807956    0.0600
     34 H34        -7.3991    1.5607   54.7956 H       1  ZINC000750807956    0.0800
     35 H35        -8.1673    2.8796   53.8786 H       1  ZINC000750807956    0.0800
     36 H36        -6.5025    3.7844   55.4657 H       1  ZINC000750807956    0.0800
     37 H37        -8.1439    4.2979   55.9234 H       1  ZINC000750807956    0.0700
     38 H38        -6.6347    1.9305   57.1221 H       1  ZINC000750807956    0.0700
     39 H39        -6.8465    3.5186   57.8989 H       1  ZINC000750807956    0.0800
     40 H40        -8.5217    1.8043   58.6777 H       1  ZINC000750807956    0.0900
     41 H41        -9.2801    3.2295   57.9221 H       1  ZINC000750807956    0.0800
     42 H42        -8.5550   -0.1035   58.8242 H       1  ZINC000750807956    0.1200
     43 H43       -10.2431    0.3467   59.1644 H       1  ZINC000750807956    0.1100
     44 H44       -11.6043   -1.4671   59.9138 H       1  ZINC000750807956    0.4000
     45 H45       -14.0178   -5.2024   58.4636 H       1  ZINC000750807956    0.0600
     46 H46       -14.7705   -5.1033   56.8537 H       1  ZINC000750807956    0.0700
     47 H47       -13.0680   -4.6318   57.0707 H       1  ZINC000750807956    0.0900
     48 H48       -16.1871   -2.1849   58.6796 H       1  ZINC000750807956    0.0700
     49 H49       -16.5921   -3.6744   57.7934 H       1  ZINC000750807956    0.0800
     50 H50       -15.8394   -3.7736   59.4033 H       1  ZINC000750807956    0.0700
     51 H51       -13.5560   -2.4019   56.0550 H       1  ZINC000750807956    0.0900
     52 H52       -15.2587   -2.8734   55.8381 H       1  ZINC000750807956    0.0700
     53 H53       -14.8537   -1.3839   56.7244 H       1  ZINC000750807956    0.0600
     54 H54        -7.9701   -2.2122   59.4225 H       1  ZINC000750807956    0.1100
     55 H55        -8.8118   -2.6330   61.7784 H       1  ZINC000750807956    0.0900
     56 H56       -10.5422   -2.3371   61.2129 H       1  ZINC000750807956    0.0900
     57 H57       -10.3370   -4.2640   59.5762 H       1  ZINC000750807956    0.1200
     58 H58        -8.6066   -4.5600   60.1416 H       1  ZINC000750807956    0.0900
@<TRIPOS>BOND
     1     1     2    1
     2     1    29    1
     3     1    30    1
     4     1    31    1
     5     2     3    1
     6     2    32    1
     7     2    33    1
     8     3     4    1
     9     4     5    2
    10     4     6    1
    11     6     7    1
    12     6    12    1
    13     6     8    1
    14     8     9    1
    15     8    34    1
    16     8    35    1
    17     9    10    1
    18     9    36    1
    19     9    37    1
    20    10    11    1
    21    10    38    1
    22    10    39    1
    23    11    12    1
    24    11    40    1
    25    11    41    1
    26    12    13   am
    27    13    14    2
    28    13    15    1
    29    15    16    1
    30    15    42    1
    31    15    43    1
    32    16    17    1
    33    16    18    1
    34    16    26    1
    35    18    19   am
    36    18    44    1
    37    19    20    2
    38    19    21    1
    39    21    22    1
    40    22    23    1
    41    22    24    1
    42    22    25    1
    43    23    45    1
    44    23    46    1
    45    23    47    1
    46    24    48    1
    47    24    49    1
    48    24    50    1
    49    25    51    1
    50    25    52    1
    51    25    53    1
    52    26    28    1
    53    26    27    1
    54    26    54    1
    55    27    28    1
    56    27    55    1
    57    27    56    1
    58    28    57    1
    59    28    58    1
@<TRIPOS>SUBSTRUCTURE
     1 ZINC000750807956        1 TEMP              0 ****  ****    0 ROOT


##########                                Name:    ZINC001110536231
##########                DOCK_Rotatable_Bonds:                   8
##########                         Heavy_Atoms:                  24
##########                    Molecular_Weight:             329.442
##########                DOCK_Rotatable_Bonds:                   8
##########                       Formal_Charge:          -0.0400001
##########                     HBond_Acceptors:                   5
##########                        HBond_Donors:                   1
##########                         Heavy_Atoms:                  24
##########                          Grid_Score:          -30.456064
##########                     Grid_vdw_energy:          -30.379005
##########                      Grid_es_energy:           -0.077059
##########           Internal_energy_repulsive:           24.710487

@<TRIPOS>MOLECULE
ZINC001110536231
 51 53 1 0 0
SMALL
USER_CHARGES


@<TRIPOS>ATOM
      1 C1         -9.3313   -2.5396   61.0950 C.3     1  ZINC001110536231   -0.1300
      2 C2         -9.0740   -1.6011   59.9144 C.3     1  ZINC001110536231   -0.1000
      3 C3        -10.1323   -1.8148   58.8630 C.2     1  ZINC001110536231   -0.0200
      4 C4        -11.3089   -0.8769   58.7767 C.3     1  ZINC001110536231   -0.1300
      5 C5        -10.0281   -2.8309   58.0112 C.2     1  ZINC001110536231   -0.2400
      6 C6        -11.0612   -3.0393   56.9851 C.2     1  ZINC001110536231    0.5400
      7 O7        -11.8181   -3.9875   57.0679 O.2     1  ZINC001110536231   -0.5300
      8 N8        -11.1689   -2.1793   55.9529 N.am    1  ZINC001110536231   -0.7300
      9 C9        -12.1989   -2.3858   54.9318 C.3     1  ZINC001110536231    0.1100
     10 H10       -13.0347   -2.9534   55.3409 H       1  ZINC001110536231    0.1000
     11 C11       -11.6049   -3.1047   53.6958 C.3     1  ZINC001110536231   -0.1600
     12 C12       -11.8125   -2.0775   52.5423 C.3     1  ZINC001110536231    0.0500
     13 H13       -11.1671   -2.2084   51.6736 H       1  ZINC001110536231    0.1200
     14 C14       -13.3437   -2.0992   52.2524 C.3     1  ZINC001110536231   -0.1200
     15 C15       -13.9554   -1.3883   53.4844 C.3     1  ZINC001110536231   -0.1100
     16 C16       -12.6891   -1.0201   54.3630 C.3     1  ZINC001110536231    0.0400
     17 H17       -12.8351   -0.2175   55.0859 H       1  ZINC001110536231    0.1200
     18 N18       -11.6597   -0.7755   53.2847 N.3     1  ZINC001110536231   -0.4900
     19 C19       -10.3158   -0.6365   53.8617 C.3     1  ZINC001110536231    0.0600
     20 C20        -9.4815    0.2580   52.9815 C.ar    1  ZINC001110536231    0.0100
     21 C21        -9.8376    1.5835   52.7756 C.ar    1  ZINC001110536231   -0.2100
     22 C22        -9.0508    2.3761   51.9635 C.ar    1  ZINC001110536231    0.1400
     23 N23        -7.9701    1.8884   51.3847 N.ar    1  ZINC001110536231   -0.5400
     24 C24        -7.5983    0.6307   51.5567 C.ar    1  ZINC001110536231    0.3200
     25 O25        -6.4792    0.1709   50.9425 O.3     1  ZINC001110536231   -0.3100
     26 C26        -5.7350    1.1092   50.1629 C.3     1  ZINC001110536231    0.0400
     27 C27        -8.3392   -0.2222   52.3644 C.ar    1  ZINC001110536231   -0.1700
     28 H28        -8.5658   -2.3850   61.8555 H       1  ZINC001110536231    0.0500
     29 H29       -10.3129   -2.3289   61.5194 H       1  ZINC001110536231    0.0700
     30 H30        -9.2984   -3.5734   60.7513 H       1  ZINC001110536231    0.0400
     31 H31        -9.1070   -0.5672   60.2581 H       1  ZINC001110536231    0.0900
     32 H32        -8.0924   -1.8118   59.4899 H       1  ZINC001110536231    0.0600
     33 H33       -11.0677   -0.0522   58.1060 H       1  ZINC001110536231    0.0800
     34 H34       -12.1755   -1.4155   58.3933 H       1  ZINC001110536231    0.0700
     35 H35       -11.5343   -0.4848   59.7684 H       1  ZINC001110536231    0.0700
     36 H36        -9.1849   -3.5030   58.0731 H       1  ZINC001110536231    0.1200
     37 H37       -10.5644   -1.4236   55.8861 H       1  ZINC001110536231    0.4000
     38 H38       -10.5441   -3.3073   53.8428 H       1  ZINC001110536231    0.0700
     39 H39       -12.1481   -4.0271   53.4906 H       1  ZINC001110536231    0.0800
     40 H40       -13.5693   -1.5475   51.3398 H       1  ZINC001110536231    0.0700
     41 H41       -13.7063   -3.1246   52.1817 H       1  ZINC001110536231    0.0700
     42 H42       -14.4843   -0.4844   53.1825 H       1  ZINC001110536231    0.0800
     43 H43       -14.6213   -2.0615   54.0244 H       1  ZINC001110536231    0.0700
     44 H44       -10.3913   -0.1989   54.8571 H       1  ZINC001110536231    0.0900
     45 H45        -9.8468   -1.6180   53.9307 H       1  ZINC001110536231    0.0700
     46 H46       -10.7209    1.9906   53.2453 H       1  ZINC001110536231    0.1300
     47 H47        -9.3237    3.4081   51.7998 H       1  ZINC001110536231    0.1600
     48 H48        -4.8672    0.6131   49.7283 H       1  ZINC001110536231    0.1000
     49 H49        -6.3667    1.5011   49.3657 H       1  ZINC001110536231    0.0600
     50 H50        -5.4036    1.9292   50.8001 H       1  ZINC001110536231    0.0600
     51 H51        -8.0326   -1.2484   52.5029 H       1  ZINC001110536231    0.1400
@<TRIPOS>BOND
     1     1     2    1
     2     1    28    1
     3     1    29    1
     4     1    30    1
     5     2     3    1
     6     2    31    1
     7     2    32    1
     8     3     4    1
     9     3     5    2
    10     4    33    1
    11     4    34    1
    12     4    35    1
    13     5     6    1
    14     5    36    1
    15     6     7    2
    16     6     8   am
    17     8     9    1
    18     8    37    1
    19     9    10    1
    20     9    16    1
    21     9    11    1
    22    11    12    1
    23    11    38    1
    24    11    39    1
    25    12    13    1
    26    12    18    1
    27    12    14    1
    28    14    15    1
    29    14    40    1
    30    14    41    1
    31    15    16    1
    32    15    42    1
    33    15    43    1
    34    16    17    1
    35    16    18    1
    36    18    19    1
    37    19    20    1
    38    19    44    1
    39    19    45    1
    40    20    27   ar
    41    20    21   ar
    42    21    22   ar
    43    21    46    1
    44    22    23   ar
    45    22    47    1
    46    23    24   ar
    47    24    25    1
    48    24    27   ar
    49    25    26    1
    50    26    48    1
    51    26    49    1
    52    26    50    1
    53    27    51    1
@<TRIPOS>SUBSTRUCTURE
     1 ZINC001110536231        1 TEMP              0 ****  ****    0 ROOT


##########                                Name:    ZINC000186316242
##########                DOCK_Rotatable_Bonds:                   7
##########                         Heavy_Atoms:                  28
##########                    Molecular_Weight:             392.525
##########                DOCK_Rotatable_Bonds:                   7
##########                       Formal_Charge:         -0.00999981
##########                     HBond_Acceptors:                   6
##########                        HBond_Donors:                   0
##########                         Heavy_Atoms:                  28
##########                          Grid_Score:          -30.424780
##########                     Grid_vdw_energy:          -30.422325
##########                      Grid_es_energy:           -0.002454
##########           Internal_energy_repulsive:           76.029213

@<TRIPOS>MOLECULE
ZINC000186316242
 52 55 1 0 0
SMALL
USER_CHARGES


@<TRIPOS>ATOM
      1 C1        -11.9119    0.7950   52.3093 C.3     1  ZINC000186316242   -0.1500
      2 C2        -11.2450    0.0711   53.4807 C.3     1  ZINC000186316242    0.1000
      3 N3        -10.6558   -1.1840   53.0077 N.am    1  ZINC000186316242   -0.5900
      4 C4         -9.4653   -1.1737   52.3761 C.2     1  ZINC000186316242    0.5900
      5 O5         -8.9762   -2.2157   51.9833 O.2     1  ZINC000186316242   -0.5000
      6 C6         -8.7561    0.0999   52.1616 C.2     1  ZINC000186316242    0.0100
      7 C7         -7.5339    0.1669   51.5620 C.2     1  ZINC000186316242   -0.2100
      8 S8         -7.0372    1.8018   51.4921 S.3     1  ZINC000186316242    0.2000
      9 C9         -8.5243    2.3076   52.2851 C.2     1  ZINC000186316242    0.0700
     10 C10        -8.8834    3.7042   52.6144 C.ar    1  ZINC000186316242    0.1900
     11 C11        -8.0082    4.7392   52.2865 C.ar    1  ZINC000186316242   -0.1500
     12 C12        -8.3586    6.0410   52.6007 C.ar    1  ZINC000186316242   -0.0700
     13 C13        -9.5731    6.2659   53.2328 C.ar    1  ZINC000186316242   -0.1600
     14 C14       -10.3935    5.1921   53.5292 C.ar    1  ZINC000186316242    0.1100
     15 N15       -10.0392    3.9633   53.2151 N.ar    1  ZINC000186316242   -0.4500
     16 N16        -9.2602    1.2675   52.5318 N.2     1  ZINC000186316242   -0.3900
     17 C17       -11.3609   -2.4504   53.2209 C.3     1  ZINC000186316242    0.1400
     18 H18       -10.9667   -3.2187   52.5559 H       1  ZINC000186316242    0.1000
     19 C19       -12.8779   -2.2657   52.9877 C.3     1  ZINC000186316242   -0.1300
     20 C20       -13.5085   -3.1370   54.1030 C.3     1  ZINC000186316242    0.0400
     21 N21       -12.5968   -2.9250   55.2562 N.3     1  ZINC000186316242   -0.4900
     22 C22       -12.7337   -4.0062   56.2412 C.3     1  ZINC000186316242    0.0800
     23 C23       -11.8778   -3.7017   57.4436 C.ar    1  ZINC000186316242   -0.0700
     24 C24       -12.1954   -2.6373   58.2664 C.ar    1  ZINC000186316242   -0.1000
     25 C25       -11.4102   -2.3580   59.3693 C.ar    1  ZINC000186316242   -0.1200
     26 C26       -10.3078   -3.1433   59.6497 C.ar    1  ZINC000186316242   -0.1200
     27 C27        -9.9907   -4.2083   58.8273 C.ar    1  ZINC000186316242   -0.1200
     28 C28       -10.7782   -4.4902   57.7268 C.ar    1  ZINC000186316242   -0.1100
     29 C29       -11.2286   -2.8951   54.6893 C.3     1  ZINC000186316242    0.0400
     30 H30       -12.3502    1.7288   52.6613 H       1  ZINC000186316242    0.0700
     31 H31       -11.1668    1.0093   51.5431 H       1  ZINC000186316242    0.0500
     32 H32       -12.6936    0.1623   51.8890 H       1  ZINC000186316242    0.0400
     33 H33       -10.4631    0.7037   53.9010 H       1  ZINC000186316242    0.1200
     34 H34       -11.9899   -0.1433   54.2470 H       1  ZINC000186316242    0.0700
     35 H35        -6.9702   -0.6763   51.1910 H       1  ZINC000186316242    0.1900
     36 H36        -7.0702    4.5280   51.7947 H       1  ZINC000186316242    0.1400
     37 H37        -7.7011    6.8631   52.3595 H       1  ZINC000186316242    0.1400
     38 H38        -9.8749    7.2701   53.4915 H       1  ZINC000186316242    0.1400
     39 H39       -11.3391    5.3643   54.0216 H       1  ZINC000186316242    0.1600
     40 H40       -13.1622   -1.2202   53.1078 H       1  ZINC000186316242    0.0900
     41 H41       -13.1644   -2.6336   52.0024 H       1  ZINC000186316242    0.0700
     42 H42       -14.5146   -2.7905   54.3392 H       1  ZINC000186316242    0.0800
     43 H43       -13.5209   -4.1868   53.8102 H       1  ZINC000186316242    0.0400
     44 H44       -13.7762   -4.0879   56.5486 H       1  ZINC000186316242    0.0400
     45 H45       -12.4117   -4.9472   55.7950 H       1  ZINC000186316242    0.0800
     46 H46       -13.0567   -2.0237   58.0473 H       1  ZINC000186316242    0.1200
     47 H47       -11.6580   -1.5260   60.0118 H       1  ZINC000186316242    0.1200
     48 H48        -9.6939   -2.9248   60.5110 H       1  ZINC000186316242    0.1200
     49 H49        -9.1292   -4.8218   59.0462 H       1  ZINC000186316242    0.1200
     50 H50       -10.5306   -5.3223   57.0844 H       1  ZINC000186316242    0.1200
     51 H51       -10.7839   -3.8890   54.7398 H       1  ZINC000186316242    0.0500
     52 H52       -10.6143   -2.1822   55.2392 H       1  ZINC000186316242    0.0800
@<TRIPOS>BOND
     1     1     2    1
     2     1    30    1
     3     1    31    1
     4     1    32    1
     5     2     3    1
     6     2    33    1
     7     2    34    1
     8     3     4   am
     9     3    17    1
    10     4     5    2
    11     4     6    1
    12     6    16    1
    13     6     7    2
    14     7     8    1
    15     7    35    1
    16     8     9    1
    17     9    10    1
    18     9    16    2
    19    10    15   ar
    20    10    11   ar
    21    11    12   ar
    22    11    36    1
    23    12    13   ar
    24    12    37    1
    25    13    14   ar
    26    13    38    1
    27    14    15   ar
    28    14    39    1
    29    17    18    1
    30    17    29    1
    31    17    19    1
    32    19    20    1
    33    19    40    1
    34    19    41    1
    35    20    21    1
    36    20    42    1
    37    20    43    1
    38    21    22    1
    39    21    29    1
    40    22    23    1
    41    22    44    1
    42    22    45    1
    43    23    28   ar
    44    23    24   ar
    45    24    25   ar
    46    24    46    1
    47    25    26   ar
    48    25    47    1
    49    26    27   ar
    50    26    48    1
    51    27    28   ar
    52    27    49    1
    53    28    50    1
    54    29    51    1
    55    29    52    1
@<TRIPOS>SUBSTRUCTURE
     1 ZINC000186316242        1 TEMP              0 ****  ****    0 ROOT


##########                                Name:    ZINC001122903793
##########                DOCK_Rotatable_Bonds:                   4
##########                         Heavy_Atoms:                  25
##########                    Molecular_Weight:             399.968
##########                DOCK_Rotatable_Bonds:                   4
##########                       Formal_Charge:           0.0100003
##########                     HBond_Acceptors:                   9
##########                        HBond_Donors:                   0
##########                         Heavy_Atoms:                  25
##########                          Grid_Score:          -30.401783
##########                     Grid_vdw_energy:          -30.158030
##########                      Grid_es_energy:           -0.243754
##########           Internal_energy_repulsive:           12.516475

@<TRIPOS>MOLECULE
ZINC001122903793
 47 50 1 0 0
SMALL
USER_CHARGES


@<TRIPOS>ATOM
      1 C1        -10.5381    1.0126   61.7486 C.3     1  ZINC001122903793   -0.1400
      2 C2        -10.5918   -0.2660   60.9100 C.3     1  ZINC001122903793   -0.0400
      3 H3        -11.5918   -0.6966   60.9627 H       1  ZINC001122903793    0.1000
      4 S4         -9.3769   -1.4631   61.5423 S.3     1  ZINC001122903793   -0.2500
      5 C5         -9.4183   -2.7528   60.2603 C.3     1  ZINC001122903793   -0.0800
      6 C6         -9.2306   -2.0860   58.8933 C.3     1  ZINC001122903793    0.0700
      7 N7        -10.3322   -1.1550   58.6383 N.3     1  ZINC001122903793   -0.4800
      8 C8        -10.4167   -0.8430   57.2912 C.2     1  ZINC001122903793    0.3700
      9 N9         -9.5005   -0.2348   56.5745 N.2     1  ZINC001122903793   -0.2900
     10 N10        -9.9022   -0.1042   55.3609 N.2     1  ZINC001122903793   -0.2400
     11 C11       -11.1031   -0.6226   55.2279 C.2     1  ZINC001122903793    0.2600
     12 C12       -11.9045   -0.6706   53.9940 C.2     1  ZINC001122903793   -0.1600
     13 C13       -11.5639   -1.3013   52.8451 C.2     1  ZINC001122903793    0.1600
     14 Cl14      -10.0769   -2.1765   52.6541 Cl      1  ZINC001122903793    0.0300
     15 N15       -12.4572   -1.1931   51.8871 N.2     1  ZINC001122903793   -0.4600
     16 C16       -13.5261   -0.5161   52.1473 C.2     1  ZINC001122903793    0.0300
     17 S17       -13.4820    0.0757   53.7505 S.3     1  ZINC001122903793    0.2200
     18 N18       -11.4670   -1.1163   56.4606 N.pl3   1  ZINC001122903793   -0.4600
     19 C19       -12.7212   -1.7878   56.8106 C.3     1  ZINC001122903793    0.1100
     20 C20       -12.5946   -3.2855   56.5253 C.3     1  ZINC001122903793    0.0700
     21 H21       -11.7091   -3.6899   57.0155 H       1  ZINC001122903793    0.0800
     22 C22       -13.8639   -4.0335   57.0053 C.3     1  ZINC001122903793   -0.1500
     23 C23       -13.8295   -5.2889   56.0915 C.3     1  ZINC001122903793   -0.1500
     24 C24       -13.2359   -4.7252   54.7825 C.3     1  ZINC001122903793    0.0500
     25 O25       -12.5315   -3.5199   55.1095 O.3     1  ZINC001122903793   -0.3700
     26 C26       -10.2474    0.0593   59.4526 C.3     1  ZINC001122903793    0.1000
     27 H27        -9.2339    0.4574   59.4048 H       1  ZINC001122903793    0.0800
     28 C28       -11.2291    1.1020   58.9142 C.3     1  ZINC001122903793   -0.1500
     29 H29       -11.2621    1.7306   61.3633 H       1  ZINC001122903793    0.0800
     30 H30       -10.7766    0.7771   62.7859 H       1  ZINC001122903793    0.0700
     31 H31        -9.5372    1.4409   61.6941 H       1  ZINC001122903793    0.0700
     32 H32        -8.6131   -3.4669   60.4331 H       1  ZINC001122903793    0.1200
     33 H33       -10.3793   -3.2663   60.2884 H       1  ZINC001122903793    0.0900
     34 H34        -8.2864   -1.5415   58.8825 H       1  ZINC001122903793    0.0700
     35 H35        -9.2153   -2.8505   58.1165 H       1  ZINC001122903793    0.0900
     36 H36       -14.3354   -0.3510   51.4516 H       1  ZINC001122903793    0.2100
     37 H37       -12.9315   -1.6360   57.8692 H       1  ZINC001122903793    0.1200
     38 H38       -13.5342   -1.3719   56.2155 H       1  ZINC001122903793    0.1000
     39 H39       -13.7828   -4.3104   58.0564 H       1  ZINC001122903793    0.0900
     40 H40       -14.7608   -3.4409   56.8251 H       1  ZINC001122903793    0.0800
     41 H41       -13.1811   -6.0573   56.5123 H       1  ZINC001122903793    0.0800
     42 H42       -14.8350   -5.6760   55.9263 H       1  ZINC001122903793    0.0900
     43 H43       -12.5460   -5.4486   54.3478 H       1  ZINC001122903793    0.0700
     44 H44       -14.0374   -4.5065   54.0771 H       1  ZINC001122903793    0.0700
     45 H45       -12.2429    0.7039   58.9589 H       1  ZINC001122903793    0.0600
     46 H46       -11.1669    2.0063   59.5196 H       1  ZINC001122903793    0.0800
     47 H47       -10.9770    1.3387   57.8806 H       1  ZINC001122903793    0.0600
@<TRIPOS>BOND
     1     1     2    1
     2     1    29    1
     3     1    30    1
     4     1    31    1
     5     2     3    1
     6     2    26    1
     7     2     4    1
     8     4     5    1
     9     5     6    1
    10     5    32    1
    11     5    33    1
    12     6     7    1
    13     6    34    1
    14     6    35    1
    15     7     8    1
    16     7    26    1
    17     8    18    1
    18     8     9    2
    19     9    10    1
    20    10    11    2
    21    11    12    1
    22    11    18    1
    23    12    17    1
    24    12    13    2
    25    13    14    1
    26    13    15    1
    27    15    16    2
    28    16    17    1
    29    16    36    1
    30    18    19    1
    31    19    20    1
    32    19    37    1
    33    19    38    1
    34    20    21    1
    35    20    25    1
    36    20    22    1
    37    22    23    1
    38    22    39    1
    39    22    40    1
    40    23    24    1
    41    23    41    1
    42    23    42    1
    43    24    25    1
    44    24    43    1
    45    24    44    1
    46    26    27    1
    47    26    28    1
    48    28    45    1
    49    28    46    1
    50    28    47    1
@<TRIPOS>SUBSTRUCTURE
     1 ZINC001122903793        1 TEMP              0 ****  ****    0 ROOT


##########                                Name:    ZINC000535362552
##########                DOCK_Rotatable_Bonds:                   5
##########                         Heavy_Atoms:                  26
##########                    Molecular_Weight:             416.228
##########                DOCK_Rotatable_Bonds:                   5
##########                       Formal_Charge:         -0.00999981
##########                     HBond_Acceptors:                   6
##########                        HBond_Donors:                   1
##########                         Heavy_Atoms:                  26
##########                          Grid_Score:          -30.401491
##########                     Grid_vdw_energy:          -29.462856
##########                      Grid_es_energy:           -0.938635
##########           Internal_energy_repulsive:            6.247710

@<TRIPOS>MOLECULE
ZINC000535362552
 40 43 1 0 0
SMALL
USER_CHARGES


@<TRIPOS>ATOM
      1 C1        -13.7199   -0.0964   49.1199 C.3     1  ZINC000535362552    0.0300
      2 O2        -13.1504   -0.7480   50.2858 O.3     1  ZINC000535362552   -0.3400
      3 C3        -13.9026   -1.6911   50.8887 C.2     1  ZINC000535362552    0.5500
      4 O4        -14.7997   -2.2367   50.2756 O.2     1  ZINC000535362552   -0.4800
      5 C5        -13.6384   -2.0589   52.2851 C.2     1  ZINC000535362552   -0.0100
      6 C6        -12.8451   -1.3621   53.1407 C.2     1  ZINC000535362552   -0.0900
      7 C7        -12.8773   -2.0913   54.4078 C.ar    1  ZINC000535362552   -0.1300
      8 C8        -12.2827   -1.8964   55.6565 C.ar    1  ZINC000535362552   -0.0600
      9 C9        -12.5255   -2.7988   56.6751 C.ar    1  ZINC000535362552    0.1200
     10 N10       -11.9336   -2.6109   57.9311 N.am    1  ZINC000535362552   -0.6700
     11 C11       -10.8467   -3.3284   58.2780 C.2     1  ZINC000535362552    0.5200
     12 O12       -10.3809   -4.1368   57.5030 O.2     1  ZINC000535362552   -0.5000
     13 C13       -10.2102   -3.1263   59.6289 C.3     1  ZINC000535362552   -0.1000
     14 H14       -10.1033   -4.0761   60.1531 H       1  ZINC000535362552    0.1300
     15 C15        -8.8445   -2.4120   59.4953 C.3     1  ZINC000535362552    0.0600
     16 O16        -8.8149   -1.5621   60.6545 O.3     1  ZINC000535362552   -0.2900
     17 C17       -10.0901   -1.2447   61.0106 C.ar    1  ZINC000535362552    0.1300
     18 C18       -10.5619   -0.2060   61.8089 C.ar    1  ZINC000535362552   -0.1300
     19 C19       -11.9139   -0.0736   62.0501 C.ar    1  ZINC000535362552   -0.0500
     20 C20       -12.8125   -0.9711   61.5021 C.ar    1  ZINC000535362552   -0.1200
     21 Br21      -14.6638   -0.7872   61.8411 Br      1  ZINC000535362552   -0.0400
     22 C22       -12.3514   -2.0043   60.7039 C.ar    1  ZINC000535362552   -0.0100
     23 C23       -11.0033   -2.1355   60.4589 C.ar    1  ZINC000535362552   -0.1600
     24 C24       -13.3579   -3.8952   56.4558 C.ar    1  ZINC000535362552   -0.0900
     25 C25       -13.9476   -4.0951   55.2274 C.ar    1  ZINC000535362552   -0.0900
     26 C26       -13.7174   -3.1995   54.1897 C.ar    1  ZINC000535362552    0.0700
     27 O27       -14.1512   -3.1367   52.9147 O.3     1  ZINC000535362552   -0.1700
     28 H28       -14.6472    0.4035   49.3998 H       1  ZINC000535362552    0.0700
     29 H29       -13.0136    0.6383   48.7331 H       1  ZINC000535362552    0.1100
     30 H30       -13.9262   -0.8416   48.3518 H       1  ZINC000535362552    0.0700
     31 H31       -12.3005   -0.4541   52.9277 H       1  ZINC000535362552    0.1800
     32 H32       -11.6377   -1.0468   55.8250 H       1  ZINC000535362552    0.1400
     33 H33       -12.3061   -1.9643   58.5509 H       1  ZINC000535362552    0.4100
     34 H34        -8.0272   -3.1326   59.5239 H       1  ZINC000535362552    0.1200
     35 H35        -8.8064   -1.8195   58.5810 H       1  ZINC000535362552    0.0900
     36 H36        -9.8669    0.4990   62.2407 H       1  ZINC000535362552    0.1400
     37 H37       -12.2724    0.7346   62.6703 H       1  ZINC000535362552    0.1400
     38 H38       -13.0492   -2.7075   60.2738 H       1  ZINC000535362552    0.1400
     39 H39       -13.5419   -4.5952   57.2573 H       1  ZINC000535362552    0.1500
     40 H40       -14.5900   -4.9489   55.0703 H       1  ZINC000535362552    0.1500
@<TRIPOS>BOND
     1     1     2    1
     2     1    28    1
     3     1    29    1
     4     1    30    1
     5     2     3    1
     6     3     4    2
     7     3     5    1
     8     5    27    1
     9     5     6    2
    10     6     7    1
    11     6    31    1
    12     7    26   ar
    13     7     8   ar
    14     8     9   ar
    15     8    32    1
    16     9    10    1
    17     9    24   ar
    18    10    11   am
    19    10    33    1
    20    11    12    2
    21    11    13    1
    22    13    14    1
    23    13    23    1
    24    13    15    1
    25    15    16    1
    26    15    34    1
    27    15    35    1
    28    16    17    1
    29    17    23   ar
    30    17    18   ar
    31    18    19   ar
    32    18    36    1
    33    19    20   ar
    34    19    37    1
    35    20    21    1
    36    20    22   ar
    37    22    23   ar
    38    22    38    1
    39    24    25   ar
    40    24    39    1
    41    25    26   ar
    42    25    40    1
    43    26    27    1
@<TRIPOS>SUBSTRUCTURE
     1 ZINC000535362552        1 TEMP              0 ****  ****    0 ROOT


##########                                Name:    ZINC000866034032
##########                DOCK_Rotatable_Bonds:                   4
##########                         Heavy_Atoms:                  23
##########                    Molecular_Weight:             383.242
##########                DOCK_Rotatable_Bonds:                   4
##########                       Formal_Charge:           0.0199999
##########                     HBond_Acceptors:                   6
##########                        HBond_Donors:                   1
##########                         Heavy_Atoms:                  23
##########                          Grid_Score:          -30.350901
##########                     Grid_vdw_energy:          -30.722570
##########                      Grid_es_energy:            0.371670
##########           Internal_energy_repulsive:           12.497617

@<TRIPOS>MOLECULE
ZINC000866034032
 42 44 1 0 0
SMALL
USER_CHARGES


@<TRIPOS>ATOM
      1 C1          0.0410    4.3508   44.8709 C.3     1  ZINC000866034032   -0.1300
      2 C2         -0.1814    3.0903   45.7092 C.3     1  ZINC000866034032   -0.0800
      3 C3          0.9241    2.8629   46.7422 C.3     1  ZINC000866034032   -0.1300
      4 C4         -1.5992    2.9831   46.2916 C.3     1  ZINC000866034032    0.1400
      5 H5         -2.0979    3.9459   46.4033 H       1  ZINC000866034032    0.1100
      6 N6         -1.6735    2.1617   47.5024 N.am    1  ZINC000866034032   -0.7000
      7 C7         -1.7282    2.7503   48.7136 C.2     1  ZINC000866034032    0.5100
      8 O8         -1.7144    3.9598   48.8013 O.2     1  ZINC000866034032   -0.5300
      9 C9         -1.8065    1.9054   49.9591 C.3     1  ZINC000866034032   -0.1100
     10 C10        -3.0744    2.2290   50.7068 C.ar    1  ZINC000866034032   -0.0500
     11 C11        -3.0895    3.2600   51.6273 C.ar    1  ZINC000866034032   -0.0500
     12 C12        -4.2521    3.5569   52.3138 C.ar    1  ZINC000866034032   -0.0900
     13 C13        -5.4003    2.8224   52.0790 C.ar    1  ZINC000866034032   -0.0500
     14 Br14       -6.9910    3.2285   53.0173 Br      1  ZINC000866034032    0.0200
     15 C15        -5.3847    1.7909   51.1573 C.ar    1  ZINC000866034032   -0.0200
     16 N16        -6.6132    1.0049   50.9053 N.pl3   1  ZINC000866034032    0.0200
     17 O17        -6.5994    0.0968   50.0936 O.2     1  ZINC000866034032   -0.1600
     18 O18        -7.6381    1.2662   51.5094 O.2     1  ZINC000866034032   -0.1300
     19 C19        -4.2234    1.4982   50.4677 C.ar    1  ZINC000866034032   -0.0300
     20 C20        -1.9975    2.2302   45.0117 C.3     1  ZINC000866034032   -0.1500
     21 H21        -2.4322    2.8303   44.2124 H       1  ZINC000866034032    0.1200
     22 C22        -2.7167    0.8937   45.3008 C.3     1  ZINC000866034032   -0.1400
     23 C23        -1.5811   -0.1531   45.3024 C.3     1  ZINC000866034032    0.0500
     24 O24        -0.3881    0.5971   45.6174 O.3     1  ZINC000866034032   -0.3600
     25 C25        -0.5027    1.8447   44.8703 C.3     1  ZINC000866034032    0.0600
     26 H26        -0.0943    1.8139   43.8602 H       1  ZINC000866034032    0.1000
     27 H27        -0.6860    4.3804   44.0593 H       1  ZINC000866034032    0.0600
     28 H28        -0.0811    5.2321   45.5005 H       1  ZINC000866034032    0.0700
     29 H29         1.0487    4.3378   44.4556 H       1  ZINC000866034032    0.0700
     30 H30         0.8551    3.6220   47.5214 H       1  ZINC000866034032    0.0600
     31 H31         0.8082    1.8744   47.1868 H       1  ZINC000866034032    0.0600
     32 H32         1.8966    2.9302   46.2545 H       1  ZINC000866034032    0.0600
     33 H33        -1.6834    1.1943   47.4324 H       1  ZINC000866034032    0.4100
     34 H34        -1.8065    0.8508   49.6834 H       1  ZINC000866034032    0.1100
     35 H35        -0.9462    2.1147   50.5949 H       1  ZINC000866034032    0.1200
     36 H36        -2.1928    3.8334   51.8106 H       1  ZINC000866034032    0.1500
     37 H37        -4.2637    4.3620   53.0336 H       1  ZINC000866034032    0.1600
     38 H38        -4.2112    0.6932   49.7477 H       1  ZINC000866034032    0.1600
     39 H39        -3.2069    0.9267   46.2738 H       1  ZINC000866034032    0.0800
     40 H40        -3.4395    0.6716   44.5157 H       1  ZINC000866034032    0.0800
     41 H41        -1.7647   -0.9111   46.0639 H       1  ZINC000866034032    0.0900
     42 H42        -1.4900   -0.6157   44.3196 H       1  ZINC000866034032    0.0600
@<TRIPOS>BOND
     1     1     2    1
     2     1    27    1
     3     1    28    1
     4     1    29    1
     5     2    25    1
     6     2     3    1
     7     2     4    1
     8     3    30    1
     9     3    31    1
    10     3    32    1
    11     4     5    1
    12     4     6    1
    13     4    20    1
    14     6     7   am
    15     6    33    1
    16     7     8    2
    17     7     9    1
    18     9    10    1
    19     9    34    1
    20     9    35    1
    21    10    19   ar
    22    10    11   ar
    23    11    12   ar
    24    11    36    1
    25    12    13   ar
    26    12    37    1
    27    13    14    1
    28    13    15   ar
    29    15    16    1
    30    15    19   ar
    31    16    17    2
    32    16    18    2
    33    19    38    1
    34    20    21    1
    35    20    25    1
    36    20    22    1
    37    22    23    1
    38    22    39    1
    39    22    40    1
    40    23    24    1
    41    23    41    1
    42    23    42    1
    43    24    25    1
    44    25    26    1
@<TRIPOS>SUBSTRUCTURE
     1 ZINC000866034032        1 TEMP              0 ****  ****    0 ROOT


##########                                Name:    ZINC000899027326
##########                DOCK_Rotatable_Bonds:                   5
##########                         Heavy_Atoms:                  22
##########                    Molecular_Weight:             346.169
##########                DOCK_Rotatable_Bonds:                   5
##########                       Formal_Charge:           0.0300005
##########                     HBond_Acceptors:                   9
##########                        HBond_Donors:                   1
##########                         Heavy_Atoms:                  22
##########                          Grid_Score:          -30.339527
##########                     Grid_vdw_energy:          -29.422153
##########                      Grid_es_energy:           -0.917373
##########           Internal_energy_repulsive:           14.751010

@<TRIPOS>MOLECULE
ZINC000899027326
 35 36 1 0 0
SMALL
USER_CHARGES


@<TRIPOS>ATOM
      1 C1        -10.5078   -0.9663   59.4202 C.3     1  ZINC000899027326   -0.1500
      2 C2        -11.2925   -2.2758   59.5223 C.3     1  ZINC000899027326    0.1100
      3 H3        -11.7779   -2.3558   60.4950 H       1  ZINC000899027326    0.1400
      4 C4        -12.3141   -2.3738   58.4067 C.2     1  ZINC000899027326    0.5300
      5 O5        -13.2465   -1.6270   58.2001 O.2     1  ZINC000899027326   -0.4500
      6 N6        -11.9698   -3.4633   57.6922 N.am    1  ZINC000899027326   -0.3700
      7 N7        -12.6629   -3.9138   56.5609 N.am    1  ZINC000899027326   -0.5000
      8 C8        -13.5662   -4.9074   56.6754 C.2     1  ZINC000899027326    0.5200
      9 O9        -13.7801   -5.4106   57.7579 O.2     1  ZINC000899027326   -0.4800
     10 C10       -14.3104   -5.3931   55.4583 C.3     1  ZINC000899027326    0.0500
     11 O11       -15.1697   -4.3563   54.9802 O.3     1  ZINC000899027326   -0.2700
     12 C12       -14.7180   -3.6131   53.9355 C.ar    1  ZINC000899027326    0.1400
     13 C13       -13.3594   -3.5465   53.6669 C.ar    1  ZINC000899027326   -0.1900
     14 C14       -12.9019   -2.7904   52.6044 C.ar    1  ZINC000899027326   -0.0600
     15 C15       -13.7981   -2.0998   51.8086 C.ar    1  ZINC000899027326   -0.0600
     16 Cl16      -13.2203   -1.1513   50.4743 Cl      1  ZINC000899027326   -0.0500
     17 C17       -15.1548   -2.1643   52.0743 C.ar    1  ZINC000899027326   -0.0600
     18 C18       -15.6169   -2.9240   53.1323 C.ar    1  ZINC000899027326   -0.0500
     19 Cl19      -17.3188   -3.0051   53.4657 Cl      1  ZINC000899027326   -0.0300
     20 C20       -10.8840   -4.0610   58.1959 C.2     1  ZINC000899027326    0.7000
     21 O21       -10.3835   -5.0625   57.7230 O.2     1  ZINC000899027326   -0.5200
     22 N22       -10.4075   -3.4300   59.2883 N.am    1  ZINC000899027326   -0.6200
     23 C23        -9.2378   -3.8157   60.0816 C.3     1  ZINC000899027326    0.1200
     24 H24       -10.0404   -0.8985   58.4379 H       1  ZINC000899027326    0.0700
     25 H25       -11.1863   -0.1245   59.5587 H       1  ZINC000899027326    0.0900
     26 H26        -9.7379   -0.9430   60.1914 H       1  ZINC000899027326    0.0900
     27 H27       -12.4926   -3.5104   55.6953 H       1  ZINC000899027326    0.4300
     28 H28       -13.5969   -5.6618   54.6794 H       1  ZINC000899027326    0.1100
     29 H29       -14.9067   -6.2667   55.7217 H       1  ZINC000899027326    0.1100
     30 H30       -12.6589   -4.0851   54.2879 H       1  ZINC000899027326    0.1500
     31 H31       -11.8436   -2.7382   52.3955 H       1  ZINC000899027326    0.1500
     32 H32       -15.8530   -1.6245   51.4518 H       1  ZINC000899027326    0.1500
     33 H33        -8.7894   -4.7130   59.6550 H       1  ZINC000899027326    0.0900
     34 H34        -8.5088   -3.0055   60.0717 H       1  ZINC000899027326    0.0700
     35 H35        -9.5448   -4.0158   61.1081 H       1  ZINC000899027326    0.0700
@<TRIPOS>BOND
     1     1     2    1
     2     1    24    1
     3     1    25    1
     4     1    26    1
     5     2     3    1
     6     2    22    1
     7     2     4    1
     8     4     5    2
     9     4     6   am
    10     6     7    1
    11     6    20   am
    12     7     8   am
    13     7    27    1
    14     8     9    2
    15     8    10    1
    16    10    11    1
    17    10    28    1
    18    10    29    1
    19    11    12    1
    20    12    18   ar
    21    12    13   ar
    22    13    14   ar
    23    13    30    1
    24    14    15   ar
    25    14    31    1
    26    15    16    1
    27    15    17   ar
    28    17    18   ar
    29    17    32    1
    30    18    19    1
    31    20    21    2
    32    20    22   am
    33    22    23    1
    34    23    33    1
    35    23    34    1
    36    23    35    1
@<TRIPOS>SUBSTRUCTURE
     1 ZINC000899027326        1 TEMP              0 ****  ****    0 ROOT


##########                                Name:    ZINC000506388363
##########                DOCK_Rotatable_Bonds:                   5
##########                         Heavy_Atoms:                  29
##########                    Molecular_Weight:             416.858
##########                DOCK_Rotatable_Bonds:                   5
##########                       Formal_Charge:         7.07805e-07
##########                     HBond_Acceptors:                   8
##########                        HBond_Donors:                   1
##########                         Heavy_Atoms:                  29
##########                          Grid_Score:          -30.316984
##########                     Grid_vdw_energy:          -30.667818
##########                      Grid_es_energy:            0.350834
##########           Internal_energy_repulsive:            9.392279

@<TRIPOS>MOLECULE
ZINC000506388363
 48 51 1 0 0
SMALL
USER_CHARGES


@<TRIPOS>ATOM
      1 O1         -9.6269   -0.4049   61.8839 O.2     1  ZINC000506388363   -0.5300
      2 C2        -10.7760   -0.5153   61.5030 C.2     1  ZINC000506388363    0.5600
      3 C3        -11.8171    0.3985   62.0197 C.ar    1  ZINC000506388363   -0.1200
      4 C4        -11.8128    1.7448   61.6521 C.ar    1  ZINC000506388363   -0.0900
      5 C5        -12.7873    2.5929   62.1370 C.ar    1  ZINC000506388363   -0.1100
      6 C6        -13.7672    2.1117   62.9865 C.ar    1  ZINC000506388363   -0.0900
      7 C7        -13.7777    0.7770   63.3555 C.ar    1  ZINC000506388363   -0.0400
      8 Cl8       -15.0120    0.1825   64.4217 Cl      1  ZINC000506388363   -0.0600
      9 C9        -12.8116   -0.0829   62.8725 C.ar    1  ZINC000506388363   -0.0600
     10 N10       -11.0998   -1.4673   60.6056 N.am    1  ZINC000506388363   -0.6100
     11 C11       -12.4816   -1.6104   60.1224 C.3     1  ZINC000506388363    0.1000
     12 C12       -12.4617   -1.6333   58.5903 C.3     1  ZINC000506388363    0.0400
     13 N13       -11.5322   -2.6743   58.1314 N.3     1  ZINC000506388363   -0.5300
     14 C14       -11.6116   -2.8458   56.6747 C.3     1  ZINC000506388363    0.1200
     15 C15       -12.4205   -4.0771   56.3573 C.2     1  ZINC000506388363   -0.2100
     16 C16       -12.6081   -5.1377   57.1727 C.2     1  ZINC000506388363    0.0600
     17 N17       -13.3890   -6.0287   56.5247 N.pl3   1  ZINC000506388363   -0.4700
     18 N18       -13.6967   -5.5028   55.2635 N.2     1  ZINC000506388363   -0.2700
     19 C19       -13.1204   -4.3240   55.1601 C.2     1  ZINC000506388363    0.1300
     20 C20       -13.1872   -3.4195   53.9855 C.ar    1  ZINC000506388363   -0.0700
     21 C21       -14.2863   -2.5783   53.8107 C.ar    1  ZINC000506388363    0.1500
     22 F22       -15.2934   -2.5843   54.7112 F       1  ZINC000506388363   -0.1200
     23 C23       -14.3423   -1.7381   52.7141 C.ar    1  ZINC000506388363   -0.1600
     24 C24       -13.3121   -1.7304   51.7917 C.ar    1  ZINC000506388363   -0.0500
     25 C25       -12.2197   -2.5619   51.9591 C.ar    1  ZINC000506388363   -0.1600
     26 C26       -12.1486   -3.4027   53.0543 C.ar    1  ZINC000506388363    0.1600
     27 F27       -11.0809   -4.2144   53.2165 F       1  ZINC000506388363   -0.1200
     28 C28       -10.1554   -2.3828   58.5530 C.3     1  ZINC000506388363    0.0400
     29 C29       -10.0797   -2.3866   60.0789 C.3     1  ZINC000506388363    0.1200
     30 H30       -11.0480    2.1222   60.9895 H       1  ZINC000506388363    0.1400
     31 H31       -12.7846    3.6348   61.8530 H       1  ZINC000506388363    0.1400
     32 H32       -14.5271    2.7800   63.3638 H       1  ZINC000506388363    0.1400
     33 H33       -12.8205   -1.1237   63.1605 H       1  ZINC000506388363    0.1400
     34 H34       -12.9058   -2.5419   60.4970 H       1  ZINC000506388363    0.0800
     35 H35       -13.0796   -0.7673   60.4682 H       1  ZINC000506388363    0.1000
     36 H36       -13.4626   -1.8491   58.2167 H       1  ZINC000506388363    0.0900
     37 H37       -12.1346   -0.6632   58.2163 H       1  ZINC000506388363    0.0400
     38 H38       -12.0901   -1.9726   56.2315 H       1  ZINC000506388363    0.1000
     39 H39       -10.6069   -2.9560   56.2665 H       1  ZINC000506388363    0.0400
     40 H40       -12.2043   -5.2529   58.1677 H       1  ZINC000506388363    0.1800
     41 H41       -13.6851   -6.8845   56.8722 H       1  ZINC000506388363    0.4400
     42 H42       -15.1929   -1.0866   52.5774 H       1  ZINC000506388363    0.1500
     43 H43       -13.3608   -1.0725   50.9366 H       1  ZINC000506388363    0.1500
     44 H44       -11.4186   -2.5513   51.2349 H       1  ZINC000506388363    0.1500
     45 H45        -9.4840   -3.1422   58.1522 H       1  ZINC000506388363    0.0900
     46 H46        -9.8606   -1.4022   58.1795 H       1  ZINC000506388363    0.0400
     47 H47        -9.0901   -2.0592   60.3973 H       1  ZINC000506388363    0.1000
     48 H48       -10.2736   -3.3921   60.4526 H       1  ZINC000506388363    0.0800
@<TRIPOS>BOND
     1     1     2    2
     2     2     3    1
     3     2    10   am
     4     3     9   ar
     5     3     4   ar
     6     4     5   ar
     7     4    30    1
     8     5     6   ar
     9     5    31    1
    10     6     7   ar
    11     6    32    1
    12     7     8    1
    13     7     9   ar
    14     9    33    1
    15    10    29    1
    16    10    11    1
    17    11    12    1
    18    11    34    1
    19    11    35    1
    20    12    13    1
    21    12    36    1
    22    12    37    1
    23    13    14    1
    24    13    28    1
    25    14    15    1
    26    14    38    1
    27    14    39    1
    28    15    19    1
    29    15    16    2
    30    16    17    1
    31    16    40    1
    32    17    18    1
    33    17    41    1
    34    18    19    2
    35    19    20    1
    36    20    26   ar
    37    20    21   ar
    38    21    22    1
    39    21    23   ar
    40    23    24   ar
    41    23    42    1
    42    24    25   ar
    43    24    43    1
    44    25    26   ar
    45    25    44    1
    46    26    27    1
    47    28    29    1
    48    28    45    1
    49    28    46    1
    50    29    47    1
    51    29    48    1
@<TRIPOS>SUBSTRUCTURE
     1 ZINC000506388363        1 TEMP              0 ****  ****    0 ROOT


##########                                Name:    ZINC000939075213
##########                DOCK_Rotatable_Bonds:                   7
##########                         Heavy_Atoms:                  24
##########                    Molecular_Weight:             327.426
##########                DOCK_Rotatable_Bonds:                   7
##########                       Formal_Charge:          -0.0200002
##########                     HBond_Acceptors:                   5
##########                        HBond_Donors:                   2
##########                         Heavy_Atoms:                  24
##########                          Grid_Score:          -30.295603
##########                     Grid_vdw_energy:          -30.184376
##########                      Grid_es_energy:           -0.111228
##########           Internal_energy_repulsive:           10.350080

@<TRIPOS>MOLECULE
ZINC000939075213
 49 51 1 0 0
SMALL
USER_CHARGES


@<TRIPOS>ATOM
      1 C1        -10.1647    2.0241   54.9302 C.3     1  ZINC000939075213   -0.1400
      2 C2         -9.3902    0.8634   54.3026 C.3     1  ZINC000939075213   -0.1100
      3 H3         -8.8400    0.3076   55.0618 H       1  ZINC000939075213    0.0900
      4 C4         -8.4413    1.3679   53.1870 C.3     1  ZINC000939075213    0.1100
      5 N5         -8.2507    0.2062   52.2997 N.am    1  ZINC000939075213   -0.6200
      6 C6         -7.1959    0.0045   51.4853 C.2     1  ZINC000939075213    0.5600
      7 O7         -7.1428   -0.9969   50.7943 O.2     1  ZINC000939075213   -0.5400
      8 C8         -6.1501    0.9565   51.4330 C.2     1  ZINC000939075213   -0.2600
      9 C9         -4.9933    0.6582   50.7912 C.2     1  ZINC000939075213    0.0400
     10 C10        -3.9461    1.6110   50.7388 C.2     1  ZINC000939075213    0.0000
     11 C11        -2.7488    1.4739   50.0608 C.2     1  ZINC000939075213   -0.1500
     12 C12        -2.0174    2.6452   50.2783 C.2     1  ZINC000939075213   -0.2200
     13 C13        -2.7600    3.4600   51.0661 C.2     1  ZINC000939075213    0.0200
     14 N14        -3.9371    2.8455   51.3487 N.pl3   1  ZINC000939075213   -0.5000
     15 C15        -9.4013   -0.6965   52.4511 C.3     1  ZINC000939075213    0.0900
     16 C16       -10.3386   -0.0719   53.5068 C.3     1  ZINC000939075213    0.1400
     17 H17       -11.1317    0.5016   53.0271 H       1  ZINC000939075213    0.1100
     18 N18       -10.9031   -1.1073   54.3760 N.am    1  ZINC000939075213   -0.7200
     19 C19       -12.0079   -1.7785   53.9947 C.2     1  ZINC000939075213    0.5300
     20 O20       -12.5356   -1.5243   52.9326 O.2     1  ZINC000939075213   -0.5300
     21 C21       -12.5876   -2.8447   54.8880 C.3     1  ZINC000939075213   -0.0600
     22 C22       -11.4875   -3.4810   55.7399 C.3     1  ZINC000939075213   -0.1300
     23 C23       -13.6687   -2.2629   55.7689 C.2     1  ZINC000939075213   -0.1700
     24 C24       -14.7158   -3.0413   55.8040 C.2     1  ZINC000939075213   -0.1400
     25 C25       -14.5079   -4.2719   54.9523 C.3     1  ZINC000939075213   -0.1100
     26 C26       -13.3063   -3.9227   54.0438 C.3     1  ZINC000939075213   -0.1100
     27 H27       -10.8816    1.6341   55.6528 H       1  ZINC000939075213    0.0600
     28 H28        -9.4687    2.6946   55.4346 H       1  ZINC000939075213    0.0700
     29 H29       -10.6953    2.5706   54.1507 H       1  ZINC000939075213    0.0600
     30 H30        -8.9018    2.1910   52.6407 H       1  ZINC000939075213    0.0700
     31 H31        -7.4879    1.6805   53.6128 H       1  ZINC000939075213    0.0800
     32 H32        -6.2732    1.9204   51.9042 H       1  ZINC000939075213    0.1300
     33 H33        -4.8702   -0.3058   50.3200 H       1  ZINC000939075213    0.1500
     34 H34        -2.4372    0.6223   49.4742 H       1  ZINC000939075213    0.1400
     35 H35        -1.0343    2.8623   49.8876 H       1  ZINC000939075213    0.1400
     36 H36        -2.4650    4.4403   51.4103 H       1  ZINC000939075213    0.1600
     37 H37        -4.6504    3.2124   51.8942 H       1  ZINC000939075213    0.4100
     38 H38        -9.9251   -0.7921   51.4999 H       1  ZINC000939075213    0.0800
     39 H39        -9.0624   -1.6755   52.7900 H       1  ZINC000939075213    0.0700
     40 H40       -10.4818   -1.3098   55.2259 H       1  ZINC000939075213    0.4000
     41 H41       -11.0099   -2.7134   56.3490 H       1  ZINC000939075213    0.0600
     42 H42       -11.9236   -4.2404   56.3887 H       1  ZINC000939075213    0.0700
     43 H43       -10.7447   -3.9422   55.0889 H       1  ZINC000939075213    0.0600
     44 H44       -13.5856   -1.3263   56.3001 H       1  ZINC000939075213    0.1300
     45 H45       -15.6130   -2.8332   56.3680 H       1  ZINC000939075213    0.1300
     46 H46       -14.2725   -5.1322   55.5791 H       1  ZINC000939075213    0.0800
     47 H47       -15.3941   -4.4711   54.3499 H       1  ZINC000939075213    0.0800
     48 H48       -13.6422   -3.5137   53.0908 H       1  ZINC000939075213    0.0900
     49 H49       -12.6659   -4.7914   53.8909 H       1  ZINC000939075213    0.0800
@<TRIPOS>BOND
     1     1     2    1
     2     1    27    1
     3     1    28    1
     4     1    29    1
     5     2     3    1
     6     2    16    1
     7     2     4    1
     8     4     5    1
     9     4    30    1
    10     4    31    1
    11     5     6   am
    12     5    15    1
    13     6     7    2
    14     6     8    1
    15     8     9    2
    16     8    32    1
    17     9    10    1
    18     9    33    1
    19    10    14    1
    20    10    11    2
    21    11    12    1
    22    11    34    1
    23    12    13    2
    24    12    35    1
    25    13    14    1
    26    13    36    1
    27    14    37    1
    28    15    16    1
    29    15    38    1
    30    15    39    1
    31    16    17    1
    32    16    18    1
    33    18    19   am
    34    18    40    1
    35    19    20    2
    36    19    21    1
    37    21    26    1
    38    21    22    1
    39    21    23    1
    40    22    41    1
    41    22    42    1
    42    22    43    1
    43    23    24    2
    44    23    44    1
    45    24    25    1
    46    24    45    1
    47    25    26    1
    48    25    46    1
    49    25    47    1
    50    26    48    1
    51    26    49    1
@<TRIPOS>SUBSTRUCTURE
     1 ZINC000939075213        1 TEMP              0 ****  ****    0 ROOT


##########                                Name:    ZINC001098311495
##########                DOCK_Rotatable_Bonds:                   8
##########                         Heavy_Atoms:                  24
##########                    Molecular_Weight:             328.454
##########                DOCK_Rotatable_Bonds:                   8
##########                       Formal_Charge:          0.00999987
##########                     HBond_Acceptors:                   4
##########                        HBond_Donors:                   1
##########                         Heavy_Atoms:                  24
##########                          Grid_Score:          -30.270014
##########                     Grid_vdw_energy:          -29.316902
##########                      Grid_es_energy:           -0.953111
##########           Internal_energy_repulsive:           23.505392

@<TRIPOS>MOLECULE
ZINC001098311495
 52 54 1 0 0
SMALL
USER_CHARGES


@<TRIPOS>ATOM
      1 C1         -8.6573   -2.7978   59.4532 C.3     1  ZINC001098311495   -0.1500
      2 C2         -9.4555   -3.1025   60.7225 C.3     1  ZINC001098311495    0.0500
      3 O3        -10.7615   -2.5331   60.6121 O.3     1  ZINC001098311495   -0.2800
      4 C4        -10.8340   -1.1964   60.3931 C.ar    1  ZINC001098311495    0.1900
      5 C5        -10.2473   -0.3115   61.2851 C.ar    1  ZINC001098311495   -0.2200
      6 C6        -10.3276    1.0493   61.0642 C.ar    1  ZINC001098311495   -0.0500
      7 C7        -10.9871    1.5405   59.9496 C.ar    1  ZINC001098311495   -0.1700
      8 C8        -11.5707    0.6752   59.0494 C.ar    1  ZINC001098311495   -0.0500
      9 C9        -11.4973   -0.7034   59.2608 C.ar    1  ZINC001098311495   -0.1800
     10 C10       -12.1198   -1.6354   58.3012 C.2     1  ZINC001098311495    0.5600
     11 O11       -12.8976   -2.4832   58.6944 O.2     1  ZINC001098311495   -0.5200
     12 N12       -11.8261   -1.5470   56.9888 N.am    1  ZINC001098311495   -0.7200
     13 C13       -12.4455   -2.4712   56.0357 C.3     1  ZINC001098311495    0.1600
     14 H14       -13.4398   -2.7614   56.3752 H       1  ZINC001098311495    0.1000
     15 C15       -11.5518   -3.7183   55.8265 C.3     1  ZINC001098311495   -0.1200
     16 C16       -11.2011   -3.6646   54.3088 C.3     1  ZINC001098311495    0.0500
     17 H17       -10.3131   -4.2221   54.0110 H       1  ZINC001098311495    0.1100
     18 C18       -12.5146   -4.0402   53.5587 C.3     1  ZINC001098311495   -0.1500
     19 C19       -13.4131   -2.7948   53.7565 C.3     1  ZINC001098311495   -0.1500
     20 C20       -12.5154   -1.8307   54.6167 C.3     1  ZINC001098311495    0.0400
     21 H21       -12.7885   -0.7762   54.5785 H       1  ZINC001098311495    0.1200
     22 N22       -11.1521   -2.1770   54.0769 N.3     1  ZINC001098311495   -0.4900
     23 C23       -11.0602   -1.8705   52.6431 C.3     1  ZINC001098311495    0.0600
     24 C24        -9.6621   -1.4132   52.3158 C.2     1  ZINC001098311495   -0.1600
     25 C25        -9.3265   -0.1584   52.4865 C.2     1  ZINC001098311495   -0.1200
     26 C26       -10.3386    0.8277   53.0101 C.3     1  ZINC001098311495   -0.1200
     27 C27        -7.9284    0.2988   52.1591 C.3     1  ZINC001098311495   -0.1200
     28 H28        -9.1686   -3.2259   58.5910 H       1  ZINC001098311495    0.0700
     29 H29        -8.5736   -1.7184   59.3270 H       1  ZINC001098311495    0.0700
     30 H30        -7.6612   -3.2321   59.5374 H       1  ZINC001098311495    0.0800
     31 H31        -8.9442   -2.6745   61.5847 H       1  ZINC001098311495    0.0600
     32 H32        -9.5392   -4.1819   60.8487 H       1  ZINC001098311495    0.0600
     33 H33        -9.7311   -0.6869   62.1563 H       1  ZINC001098311495    0.1300
     34 H34        -9.8732    1.7346   61.7644 H       1  ZINC001098311495    0.1300
     35 H35       -11.0440    2.6064   59.7850 H       1  ZINC001098311495    0.1300
     36 H36       -12.0841    1.0626   58.1818 H       1  ZINC001098311495    0.1300
     37 H37       -11.2046   -0.8714   56.6753 H       1  ZINC001098311495    0.4000
     38 H38       -12.1029   -4.6290   56.0610 H       1  ZINC001098311495    0.0800
     39 H39       -10.6481   -3.6487   56.4318 H       1  ZINC001098311495    0.0800
     40 H40       -12.3175   -4.2069   52.4997 H       1  ZINC001098311495    0.0700
     41 H41       -12.9746   -4.9205   54.0076 H       1  ZINC001098311495    0.0800
     42 H42       -13.6613   -2.3442   52.7955 H       1  ZINC001098311495    0.0700
     43 H43       -14.3186   -3.0578   54.3034 H       1  ZINC001098311495    0.0800
     44 H44       -11.7685   -1.0801   52.3944 H       1  ZINC001098311495    0.0500
     45 H45       -11.2951   -2.7640   52.0648 H       1  ZINC001098311495    0.0800
     46 H46        -8.9367   -2.1199   51.9406 H       1  ZINC001098311495    0.1100
     47 H47       -10.8764    1.2749   52.1742 H       1  ZINC001098311495    0.0700
     48 H48        -9.8274    1.6088   53.5729 H       1  ZINC001098311495    0.0600
     49 H49       -11.0440    0.3126   53.6622 H       1  ZINC001098311495    0.0600
     50 H50        -7.2771    0.1169   53.0140 H       1  ZINC001098311495    0.0700
     51 H51        -7.5580   -0.2541   51.2960 H       1  ZINC001098311495    0.0600
     52 H52        -7.9388    1.3646   51.9307 H       1  ZINC001098311495    0.0600
@<TRIPOS>BOND
     1     1     2    1
     2     1    28    1
     3     1    29    1
     4     1    30    1
     5     2     3    1
     6     2    31    1
     7     2    32    1
     8     3     4    1
     9     4     9   ar
    10     4     5   ar
    11     5     6   ar
    12     5    33    1
    13     6     7   ar
    14     6    34    1
    15     7     8   ar
    16     7    35    1
    17     8     9   ar
    18     8    36    1
    19     9    10    1
    20    10    11    2
    21    10    12   am
    22    12    13    1
    23    12    37    1
    24    13    14    1
    25    13    20    1
    26    13    15    1
    27    15    16    1
    28    15    38    1
    29    15    39    1
    30    16    17    1
    31    16    22    1
    32    16    18    1
    33    18    19    1
    34    18    40    1
    35    18    41    1
    36    19    20    1
    37    19    42    1
    38    19    43    1
    39    20    21    1
    40    20    22    1
    41    22    23    1
    42    23    24    1
    43    23    44    1
    44    23    45    1
    45    24    25    2
    46    24    46    1
    47    25    26    1
    48    25    27    1
    49    26    47    1
    50    26    48    1
    51    26    49    1
    52    27    50    1
    53    27    51    1
    54    27    52    1
@<TRIPOS>SUBSTRUCTURE
     1 ZINC001098311495        1 TEMP              0 ****  ****    0 ROOT


##########                                Name:    ZINC000057429281
##########                DOCK_Rotatable_Bonds:                  10
##########                         Heavy_Atoms:                  23
##########                    Molecular_Weight:             331.295
##########                DOCK_Rotatable_Bonds:                  10
##########                       Formal_Charge:          -0.0100002
##########                     HBond_Acceptors:                   9
##########                        HBond_Donors:                   5
##########                         Heavy_Atoms:                  23
##########                          Grid_Score:          -30.261093
##########                     Grid_vdw_energy:          -30.216852
##########                      Grid_es_energy:           -0.044240
##########           Internal_energy_repulsive:           11.455150

@<TRIPOS>MOLECULE
ZINC000057429281
 39 39 1 0 0
SMALL
USER_CHARGES


@<TRIPOS>ATOM
      1 C1        -12.1152   -3.7865   53.9636 C.3     1  ZINC000057429281   -0.1500
      2 C2        -12.7535   -4.2213   55.2843 C.3     1  ZINC000057429281   -0.0400
      3 H3        -12.9048   -5.3007   55.2767 H       1  ZINC000057429281    0.0900
      4 C4        -14.1017   -3.5185   55.4550 C.3     1  ZINC000057429281   -0.1300
      5 C5        -14.6397   -3.7925   56.8359 C.2     1  ZINC000057429281    0.5200
      6 O6        -14.5492   -4.9040   57.3123 O.2     1  ZINC000057429281   -0.5300
      7 N7        -15.2214   -2.8022   57.5412 N.am    1  ZINC000057429281   -0.7000
      8 C8        -15.7461   -3.0690   58.8828 C.3     1  ZINC000057429281    0.1100
      9 C9        -14.6367   -2.9283   59.8931 C.2     1  ZINC000057429281    0.5200
     10 N10       -13.6177   -2.0775   59.6608 N.am    1  ZINC000057429281   -0.8500
     11 O11       -14.6610   -3.5809   60.9150 O.2     1  ZINC000057429281   -0.5100
     12 C12       -16.8414   -2.0835   59.1990 C.2     1  ZINC000057429281    0.5300
     13 N13       -16.5426   -0.9118   59.7941 N.am    1  ZINC000057429281   -0.8400
     14 O14       -17.9919   -2.3447   58.9179 O.2     1  ZINC000057429281   -0.5100
     15 C15       -11.8449   -3.8497   56.4277 C.ar    1  ZINC000057429281   -0.0500
     16 C16       -11.5109   -2.5256   56.6428 C.ar    1  ZINC000057429281   -0.1200
     17 C17       -10.6774   -2.1846   57.6917 C.ar    1  ZINC000057429281   -0.0700
     18 C18       -10.1783   -3.1676   58.5256 C.ar    1  ZINC000057429281   -0.1900
     19 C19        -9.2694   -2.7960   59.6687 C.3     1  ZINC000057429281    0.5100
     20 F20       -10.0314   -2.5973   60.8250 F       1  ZINC000057429281   -0.1800
     21 F21        -8.3499   -3.8273   59.8877 F       1  ZINC000057429281   -0.1800
     22 F22        -8.5829   -1.6181   59.3546 F       1  ZINC000057429281   -0.1800
     23 C23       -10.5134   -4.4915   58.3112 C.ar    1  ZINC000057429281   -0.0700
     24 C24       -11.3499   -4.8321   57.2648 C.ar    1  ZINC000057429281   -0.1100
     25 H25       -11.1547   -4.2872   53.8420 H       1  ZINC000057429281    0.0600
     26 H26       -12.7724   -4.0554   53.1366 H       1  ZINC000057429281    0.0800
     27 H27       -11.9638   -2.7070   53.9712 H       1  ZINC000057429281    0.0500
     28 H28       -13.9709   -2.4445   55.3226 H       1  ZINC000057429281    0.1000
     29 H29       -14.8038   -3.8936   54.7105 H       1  ZINC000057429281    0.1000
     30 H30       -15.2928   -1.9129   57.1605 H       1  ZINC000057429281    0.4200
     31 H31       -16.1464   -4.0820   58.9215 H       1  ZINC000057429281    0.1300
     32 H32       -12.9036   -1.9869   60.3110 H       1  ZINC000057429281    0.4000
     33 H33       -13.5983   -1.5558   58.8433 H       1  ZINC000057429281    0.4100
     34 H34       -17.2476   -0.2774   59.9976 H       1  ZINC000057429281    0.4000
     35 H35       -15.6224   -0.7028   60.0188 H       1  ZINC000057429281    0.4100
     36 H36       -11.9009   -1.7575   55.9913 H       1  ZINC000057429281    0.1400
     37 H37       -10.4160   -1.1503   57.8594 H       1  ZINC000057429281    0.1400
     38 H38       -10.1237   -5.2595   58.9630 H       1  ZINC000057429281    0.1400
     39 H39       -11.6117   -5.8664   57.0974 H       1  ZINC000057429281    0.1400
@<TRIPOS>BOND
     1     1     2    1
     2     1    25    1
     3     1    26    1
     4     1    27    1
     5     2     3    1
     6     2     4    1
     7     2    15    1
     8     4     5    1
     9     4    28    1
    10     4    29    1
    11     5     6    2
    12     5     7   am
    13     7     8    1
    14     7    30    1
    15     8     9    1
    16     8    12    1
    17     8    31    1
    18     9    10   am
    19     9    11    2
    20    10    32    1
    21    10    33    1
    22    12    13   am
    23    12    14    2
    24    13    34    1
    25    13    35    1
    26    15    24   ar
    27    15    16   ar
    28    16    17   ar
    29    16    36    1
    30    17    18   ar
    31    17    37    1
    32    18    19    1
    33    18    23   ar
    34    19    20    1
    35    19    21    1
    36    19    22    1
    37    23    24   ar
    38    23    38    1
    39    24    39    1
@<TRIPOS>SUBSTRUCTURE
     1 ZINC000057429281        1 TEMP              0 ****  ****    0 ROOT


##########                                Name:    ZINC000493443319
##########                DOCK_Rotatable_Bonds:                   6
##########                         Heavy_Atoms:                  25
##########                    Molecular_Weight:             348.399
##########                DOCK_Rotatable_Bonds:                   6
##########                       Formal_Charge:        -3.27826e-07
##########                     HBond_Acceptors:                   7
##########                        HBond_Donors:                   0
##########                         Heavy_Atoms:                  25
##########                          Grid_Score:          -30.244179
##########                     Grid_vdw_energy:          -28.763937
##########                      Grid_es_energy:           -1.480242
##########           Internal_energy_repulsive:           50.590641

@<TRIPOS>MOLECULE
ZINC000493443319
 49 51 1 0 0
SMALL
USER_CHARGES


@<TRIPOS>ATOM
      1 C1         -7.3673    1.9640   51.5794 C.3     1  <0>        -0.1500
      2 C2         -8.0004    1.4550   52.8759 C.3     1  <0>         0.0500
      3 O3         -7.4900    2.2034   53.9810 O.3     1  <0>        -0.3200
      4 C4         -7.9304    1.8540   55.2193 C.ar    1  <0>         0.1000
      5 C5         -7.4228    2.4921   56.3414 C.ar    1  <0>        -0.1700
      6 C6         -7.8700    2.1373   57.5992 C.ar    1  <0>        -0.1100
      7 C7         -8.8270    1.1432   57.7401 C.ar    1  <0>         0.0800
      8 O8         -9.2670    0.7937   58.9784 O.3     1  <0>        -0.3000
      9 C9        -10.5550    1.2743   59.3688 C.3     1  <0>         0.1000
     10 C10       -10.6732    1.2353   60.8937 C.3     1  <0>        -0.1800
     11 C11       -10.7320    2.7133   58.8801 C.3     1  <0>        -0.1500
     12 C12       -11.6224    0.4020   58.7597 C.2     1  <0>         0.5100
     13 O13       -12.5252    0.9033   58.1235 O.2     1  <0>        -0.5200
     14 N14       -11.5738   -0.9350   58.9220 N.am    1  <0>        -0.6000
     15 C15       -12.6122   -1.7875   58.3299 C.3     1  <0>         0.0700
     16 C16       -11.9458   -2.8303   57.4182 C.3     1  <0>         0.1300
     17 N17       -10.8067   -3.3943   58.1556 N.am    1  <0>        -0.6300
     18 C18       -10.5326   -4.6764   58.4018 C.2     1  <0>         0.6500
     19 O19       -11.1358   -5.5966   57.8860 O.2     1  <0>        -0.5200
     20 O20        -9.5292   -4.8532   59.2719 O.3     1  <0>        -0.3200
     21 C21        -8.9631   -3.5579   59.6308 C.3     1  <0>         0.0500
     22 C22        -9.7647   -2.5548   58.7855 C.3     1  <0>         0.0800
     23 H23        -9.1366   -2.0670   58.0402 H       1  <0>         0.1100
     24 C24       -10.4767   -1.5462   59.6878 C.3     1  <0>         0.1000
     25 C25        -9.3356    0.5062   56.6179 C.ar    1  <0>        -0.1800
     26 C26        -8.8911    0.8637   55.3598 C.ar    1  <0>        -0.1100
     27 H27        -7.7566    1.3932   50.7364 H       1  <0>         0.0800
     28 H28        -7.6090    3.0186   51.4467 H       1  <0>         0.0700
     29 H29        -6.2854    1.8429   51.6314 H       1  <0>         0.0700
     30 H30        -9.0824    1.5760   52.8238 H       1  <0>         0.0600
     31 H31        -7.7587    0.4004   53.0086 H       1  <0>         0.0600
     32 H32        -6.6776    3.2661   56.2316 H       1  <0>         0.1400
     33 H33        -7.4743    2.6336   58.4730 H       1  <0>         0.1400
     34 H34        -9.9903    1.9643   61.3298 H       1  <0>         0.0800
     35 H35       -11.6957    1.4755   61.1851 H       1  <0>         0.0900
     36 H36       -10.4178    0.2381   61.2526 H       1  <0>         0.0800
     37 H37       -10.5597    2.7556   57.8047 H       1  <0>         0.0800
     38 H38       -11.7455    3.0493   59.0993 H       1  <0>         0.0900
     39 H39       -10.0169    3.3601   59.3884 H       1  <0>         0.0900
     40 H40       -13.1630   -2.2946   59.1221 H       1  <0>         0.0800
     41 H41       -13.2965   -1.1745   57.7433 H       1  <0>         0.1300
     42 H42       -12.6577   -3.6196   57.1758 H       1  <0>         0.1100
     43 H43       -11.5951   -2.3527   56.5033 H       1  <0>         0.0800
     44 H44        -9.1039   -3.3605   60.6935 H       1  <0>         0.1100
     45 H45        -7.9054   -3.5177   59.3705 H       1  <0>         0.1100
     46 H46        -9.7742   -0.7751   60.0039 H       1  <0>         0.1100
     47 H47       -10.8824   -2.0561   60.5616 H       1  <0>         0.0800
     48 H48       -10.0810   -0.2676   56.7276 H       1  <0>         0.1600
     49 H49        -9.2871    0.3676   54.4861 H       1  <0>         0.1300
@<TRIPOS>BOND
     1     1     2    1
     2     1    27    1
     3     1    28    1
     4     1    29    1
     5     2     3    1
     6     2    30    1
     7     2    31    1
     8     3     4    1
     9     4    26   ar
    10     4     5   ar
    11     5     6   ar
    12     5    32    1
    13     6     7   ar
    14     6    33    1
    15     7     8    1
    16     7    25   ar
    17     8     9    1
    18     9    10    1
    19     9    11    1
    20     9    12    1
    21    10    34    1
    22    10    35    1
    23    10    36    1
    24    11    37    1
    25    11    38    1
    26    11    39    1
    27    12    13    2
    28    12    14   am
    29    14    24    1
    30    14    15    1
    31    15    16    1
    32    15    40    1
    33    15    41    1
    34    16    17    1
    35    16    42    1
    36    16    43    1
    37    17    22    1
    38    17    18   am
    39    18    19    2
    40    18    20    1
    41    20    21    1
    42    21    22    1
    43    21    44    1
    44    21    45    1
    45    22    23    1
    46    22    24    1
    47    24    46    1
    48    24    47    1
    49    25    26   ar
    50    25    48    1
    51    26    49    1
@<TRIPOS>SUBSTRUCTURE
     1 <0>         1 TEMP              0 ****  ****    0 ROOT


##########                                Name:    ZINC000338927927
##########                DOCK_Rotatable_Bonds:                   9
##########                         Heavy_Atoms:                  23
##########                    Molecular_Weight:             336.286
##########                DOCK_Rotatable_Bonds:                   9
##########                       Formal_Charge:         -0.00999999
##########                     HBond_Acceptors:                   9
##########                        HBond_Donors:                   2
##########                         Heavy_Atoms:                  23
##########                          Grid_Score:          -30.205175
##########                     Grid_vdw_energy:          -29.431997
##########                      Grid_es_energy:           -0.773179
##########           Internal_energy_repulsive:            7.620166

@<TRIPOS>MOLECULE
ZINC000338927927
 39 39 1 0 0
SMALL
USER_CHARGES


@<TRIPOS>ATOM
      1 C1         -9.1176   -1.2909   62.0055 C.3     1  <0>        -0.1600
      2 C2         -9.5473   -2.2287   60.8756 C.3     1  <0>        -0.1100
      3 C3        -10.6684   -1.5730   60.0671 C.3     1  <0>        -0.1000
      4 H4        -11.5109   -1.3560   60.7238 H       1  <0>         0.1400
      5 C5        -11.1126   -2.5093   58.9730 C.2     1  <0>         0.5200
      6 O6        -10.4786   -3.5173   58.7429 O.2     1  <0>        -0.4700
      7 N7        -12.2144   -2.2264   58.2500 N.am    1  <0>        -0.6700
      8 C8        -12.6268   -3.0957   57.2342 C.ar    1  <0>         0.2200
      9 C9        -13.3411   -4.2440   57.5498 C.ar    1  <0>        -0.2300
     10 C10       -13.7494   -5.1044   56.5453 C.ar    1  <0>         0.1700
     11 F11       -14.4442   -6.2209   56.8547 F       1  <0>        -0.1300
     12 C12       -13.4476   -4.8221   55.2250 C.ar    1  <0>        -0.2500
     13 C13       -12.7332   -3.6743   54.9047 C.ar    1  <0>         0.2600
     14 N14       -12.4283   -3.3900   53.5717 N.pl3   1  <0>        -0.7400
     15 C15       -11.0532   -3.5354   53.0877 C.3     1  <0>         0.0800
     16 C16       -10.5671   -2.1990   52.5235 C.3     1  <0>         0.4500
     17 F17       -11.3795   -1.8236   51.4483 F       1  <0>        -0.1800
     18 F18       -10.6320   -1.2203   53.5211 F       1  <0>        -0.1700
     19 F19        -9.2450   -2.3311   52.0852 F       1  <0>        -0.1800
     20 C20       -12.3274   -2.8078   55.9100 C.ar    1  <0>        -0.2000
     21 C21       -10.1639   -0.2907   59.4568 C.2     1  <0>         0.4600
     22 O22        -9.5193   -0.3204   58.4354 O.2     1  <0>        -0.4600
     23 O23       -10.4307    0.8844   60.0481 O.3     1  <0>        -0.3500
     24 C24       -10.1788    2.0852   59.2717 C.3     1  <0>         0.0300
     25 H25        -9.9684   -1.0940   62.6577 H       1  <0>         0.0600
     26 H26        -8.3187   -1.7581   62.5814 H       1  <0>         0.0600
     27 H27        -8.7593   -0.3524   61.5823 H       1  <0>         0.0800
     28 H28        -8.6963   -2.4257   60.2235 H       1  <0>         0.0800
     29 H29        -9.9055   -3.1672   61.2988 H       1  <0>         0.0800
     30 H30       -12.7215   -1.4203   58.4341 H       1  <0>         0.4200
     31 H31       -13.5777   -4.4661   58.5798 H       1  <0>         0.1400
     32 H32       -13.7671   -5.4948   54.4427 H       1  <0>         0.1400
     33 H33       -13.1269   -3.0962   52.9664 H       1  <0>         0.4100
     34 H34       -10.4079   -3.8380   53.9124 H       1  <0>         0.1100
     35 H35       -11.0218   -4.2933   52.3050 H       1  <0>         0.1100
     36 H36       -11.7721   -1.9152   55.6629 H       1  <0>         0.1500
     37 H37       -10.4358    2.9625   59.8655 H       1  <0>         0.1000
     38 H38        -9.1242    2.1272   58.9993 H       1  <0>         0.0600
     39 H39       -10.7871    2.0676   58.3675 H       1  <0>         0.0600
@<TRIPOS>BOND
     1     1     2    1
     2     1    25    1
     3     1    26    1
     4     1    27    1
     5     2     3    1
     6     2    28    1
     7     2    29    1
     8     3     4    1
     9     3     5    1
    10     3    21    1
    11     5     6    2
    12     5     7   am
    13     7     8    1
    14     7    30    1
    15     8    20   ar
    16     8     9   ar
    17     9    10   ar
    18     9    31    1
    19    10    11    1
    20    10    12   ar
    21    12    13   ar
    22    12    32    1
    23    13    14    1
    24    13    20   ar
    25    14    15    1
    26    14    33    1
    27    15    16    1
    28    15    34    1
    29    15    35    1
    30    16    17    1
    31    16    18    1
    32    16    19    1
    33    20    36    1
    34    21    22    2
    35    21    23    1
    36    23    24    1
    37    24    37    1
    38    24    38    1
    39    24    39    1
@<TRIPOS>SUBSTRUCTURE
     1 <0>         1 TEMP              0 ****  ****    0 ROOT


##########                                Name:    ZINC000463474628
##########                DOCK_Rotatable_Bonds:                   5
##########                         Heavy_Atoms:                  25
##########                    Molecular_Weight:              407.35
##########                DOCK_Rotatable_Bonds:                   5
##########                       Formal_Charge:           0.0200004
##########                     HBond_Acceptors:                   4
##########                        HBond_Donors:                   0
##########                         Heavy_Atoms:                  25
##########                          Grid_Score:          -30.190977
##########                     Grid_vdw_energy:          -30.020132
##########                      Grid_es_energy:           -0.170845
##########           Internal_energy_repulsive:           26.101498

@<TRIPOS>MOLECULE
ZINC000463474628
 52 54 1 0 0
SMALL
USER_CHARGES


@<TRIPOS>ATOM
      1 C1        -14.2453   -5.4194   55.4986 C.3     1  ZINC000463474628   -0.1400
      2 C2        -14.8788   -4.1060   55.0353 C.3     1  ZINC000463474628   -0.1300
      3 C3        -13.8016   -3.0229   54.9488 C.3     1  ZINC000463474628    0.1400
      4 H4        -14.2420   -2.0897   54.5976 H       1  ZINC000463474628    0.0800
      5 C5        -12.6830   -3.4710   53.9848 C.3     1  ZINC000463474628   -0.1300
      6 C6        -11.3965   -2.9534   54.6808 C.3     1  ZINC000463474628   -0.1300
      7 C7        -11.7514   -3.1493   56.1759 C.3     1  ZINC000463474628    0.0900
      8 N8        -13.1888   -2.8206   56.2699 N.am    1  ZINC000463474628   -0.6100
      9 C9        -13.8289   -2.4068   57.3813 C.2     1  ZINC000463474628    0.5300
     10 O10       -15.0166   -2.1643   57.3424 O.2     1  ZINC000463474628   -0.5100
     11 C11       -13.0688   -2.2455   58.6726 C.3     1  ZINC000463474628   -0.1200
     12 H12       -12.2359   -2.9482   58.6948 H       1  ZINC000463474628    0.1000
     13 C13       -14.0026   -2.5228   59.8530 C.3     1  ZINC000463474628   -0.1000
     14 C14       -13.2236   -2.3914   61.1637 C.3     1  ZINC000463474628   -0.1300
     15 C15       -12.6902   -0.9612   61.2949 C.3     1  ZINC000463474628    0.0900
     16 N16       -11.9094   -0.6358   60.0936 N.am    1  ZINC000463474628   -0.6000
     17 C17       -10.6444   -0.1826   60.1987 C.2     1  ZINC000463474628    0.5700
     18 O18       -10.0088    0.0831   59.1972 O.2     1  ZINC000463474628   -0.5200
     19 C19       -10.0301   -0.0089   61.5317 C.ar    1  ZINC000463474628   -0.1200
     20 C20        -9.3128   -1.0549   62.1144 C.ar    1  ZINC000463474628   -0.0800
     21 C21        -8.7419   -0.8868   63.3587 C.ar    1  ZINC000463474628   -0.1000
     22 C22        -8.8791    0.3166   64.0296 C.ar    1  ZINC000463474628   -0.0700
     23 Br23       -8.0927    0.5391   65.7347 Br      1  ZINC000463474628   -0.0400
     24 C24        -9.5896    1.3582   63.4565 C.ar    1  ZINC000463474628   -0.0900
     25 C25       -10.1601    1.2042   62.2107 C.ar    1  ZINC000463474628   -0.0300
     26 C26       -10.9330    2.3386   61.5887 C.3     1  ZINC000463474628   -0.1300
     27 C27       -12.5330   -0.8140   58.7751 C.3     1  ZINC000463474628    0.1200
     28 H28       -13.8063   -5.9327   54.6432 H       1  ZINC000463474628    0.0700
     29 H29       -13.4685   -5.2086   56.2337 H       1  ZINC000463474628    0.0600
     30 H30       -15.0097   -6.0524   55.9491 H       1  ZINC000463474628    0.0300
     31 H31       -15.3315   -4.2474   54.0539 H       1  ZINC000463474628    0.0600
     32 H32       -15.6447   -3.8007   55.7482 H       1  ZINC000463474628    0.0700
     33 H33       -12.6629   -4.5571   53.8956 H       1  ZINC000463474628    0.0800
     34 H34       -12.8067   -3.0049   53.0073 H       1  ZINC000463474628    0.0800
     35 H35       -10.5321   -3.5561   54.4022 H       1  ZINC000463474628    0.0900
     36 H36       -11.2262   -1.9009   54.4544 H       1  ZINC000463474628    0.0800
     37 H37       -11.5771   -4.1829   56.4749 H       1  ZINC000463474628    0.0700
     38 H38       -11.1670   -2.4702   56.7967 H       1  ZINC000463474628    0.0800
     39 H39       -14.8223   -1.8045   59.8441 H       1  ZINC000463474628    0.0800
     40 H40       -14.4041   -3.5326   59.7690 H       1  ZINC000463474628    0.0700
     41 H41       -13.8835   -2.6119   62.0028 H       1  ZINC000463474628    0.0800
     42 H42       -12.3889   -3.0923   61.1627 H       1  ZINC000463474628    0.0700
     43 H43       -13.5252   -0.2668   61.3871 H       1  ZINC000463474628    0.0800
     44 H44       -12.0526   -0.8884   62.1759 H       1  ZINC000463474628    0.1000
     45 H45        -9.2054   -1.9942   61.5923 H       1  ZINC000463474628    0.1400
     46 H46        -8.1870   -1.6955   63.8108 H       1  ZINC000463474628    0.1400
     47 H47        -9.6936    2.2945   63.9848 H       1  ZINC000463474628    0.1400
     48 H48       -10.2780    2.9044   60.9263 H       1  ZINC000463474628    0.0700
     49 H49       -11.7697    1.9376   61.0166 H       1  ZINC000463474628    0.0900
     50 H50       -11.3105    2.9944   62.3733 H       1  ZINC000463474628    0.0700
     51 H51       -11.7918   -0.6436   57.9943 H       1  ZINC000463474628    0.1000
     52 H52       -13.3555   -0.1077   58.6615 H       1  ZINC000463474628    0.0800
@<TRIPOS>BOND
     1     1     2    1
     2     1    28    1
     3     1    29    1
     4     1    30    1
     5     2     3    1
     6     2    31    1
     7     2    32    1
     8     3     4    1
     9     3     8    1
    10     3     5    1
    11     5     6    1
    12     5    33    1
    13     5    34    1
    14     6     7    1
    15     6    35    1
    16     6    36    1
    17     7     8    1
    18     7    37    1
    19     7    38    1
    20     8     9   am
    21     9    10    2
    22     9    11    1
    23    11    12    1
    24    11    27    1
    25    11    13    1
    26    13    14    1
    27    13    39    1
    28    13    40    1
    29    14    15    1
    30    14    41    1
    31    14    42    1
    32    15    16    1
    33    15    43    1
    34    15    44    1
    35    16    17   am
    36    16    27    1
    37    17    18    2
    38    17    19    1
    39    19    25   ar
    40    19    20   ar
    41    20    21   ar
    42    20    45    1
    43    21    22   ar
    44    21    46    1
    45    22    23    1
    46    22    24   ar
    47    24    25   ar
    48    24    47    1
    49    25    26    1
    50    26    48    1
    51    26    49    1
    52    26    50    1
    53    27    51    1
    54    27    52    1
@<TRIPOS>SUBSTRUCTURE
     1 ZINC000463474628        1 TEMP              0 ****  ****    0 ROOT


##########                                Name:    ZINC000089894387
##########                DOCK_Rotatable_Bonds:                   8
##########                         Heavy_Atoms:                  22
##########                    Molecular_Weight:             326.823
##########                DOCK_Rotatable_Bonds:                   8
##########                       Formal_Charge:          -0.0300003
##########                     HBond_Acceptors:                   6
##########                        HBond_Donors:                   2
##########                         Heavy_Atoms:                  22
##########                          Grid_Score:          -30.159679
##########                     Grid_vdw_energy:          -30.292763
##########                      Grid_es_energy:            0.133084
##########           Internal_energy_repulsive:           10.440108

@<TRIPOS>MOLECULE
ZINC000089894387
 45 46 1 0 0
SMALL
USER_CHARGES


@<TRIPOS>ATOM
      1 C1        -11.0455   -3.1967   53.9370 C.3     1  ZINC000089894387   -0.1700
      2 C2        -12.1318   -3.3679   55.0007 C.3     1  ZINC000089894387    0.1700
      3 H3        -12.3477   -4.4282   55.1322 H       1  ZINC000089894387    0.0900
      4 N4        -11.6660   -2.8033   56.2697 N.am    1  ZINC000089894387   -0.7400
      5 C5        -10.9646   -3.5675   57.1301 C.2     1  ZINC000089894387    0.7100
      6 O6        -10.7196   -4.7260   56.8539 O.2     1  ZINC000089894387   -0.5900
      7 N7        -10.5346   -3.0477   58.2970 N.am    1  ZINC000089894387   -0.7500
      8 C8         -9.7706   -3.8779   59.2315 C.3     1  ZINC000089894387    0.1400
      9 C9         -9.7773   -3.2259   60.6156 C.3     1  ZINC000089894387    0.0500
     10 O10        -8.8087   -2.1758   60.6521 O.3     1  ZINC000089894387   -0.3100
     11 C11        -9.1440   -1.0507   61.3366 C.ar    1  ZINC000089894387    0.1400
     12 C12        -9.8604   -0.0427   60.7080 C.ar    1  ZINC000089894387   -0.2100
     13 C13       -10.2004    1.1005   61.4054 C.ar    1  ZINC000089894387   -0.0700
     14 C14        -9.8275    1.2410   62.7290 C.ar    1  ZINC000089894387   -0.1500
     15 C15        -9.1123    0.2372   63.3589 C.ar    1  ZINC000089894387    0.0000
     16 Cl16       -8.6456    0.4166   65.0213 Cl      1  ZINC000089894387   -0.0600
     17 C17        -8.7753   -0.9110   62.6667 C.ar    1  ZINC000089894387   -0.1500
     18 C18       -13.4017   -2.6405   54.5545 C.3     1  ZINC000089894387   -0.1000
     19 C19       -13.8965   -3.2369   53.2333 C.3     1  ZINC000089894387   -0.1600
     20 C20       -15.2092   -2.5571   52.8353 C.3     1  ZINC000089894387    0.0600
     21 O21       -16.1682   -2.7269   53.8810 O.3     1  ZINC000089894387   -0.3800
     22 C22       -15.7803   -2.1474   55.1283 C.3     1  ZINC000089894387    0.0600
     23 C23       -14.4905   -2.8109   55.6184 C.3     1  ZINC000089894387   -0.1500
     24 H24       -10.8296   -2.1364   53.8054 H       1  ZINC000089894387    0.0600
     25 H25       -10.1409   -3.7150   54.2549 H       1  ZINC000089894387    0.0600
     26 H26       -11.3921   -3.6168   52.9928 H       1  ZINC000089894387    0.0700
     27 H27       -11.8624   -1.8794   56.4907 H       1  ZINC000089894387    0.3900
     28 H28       -10.7310   -2.1238   58.5179 H       1  ZINC000089894387    0.4000
     29 H29       -10.2246   -4.8668   59.2936 H       1  ZINC000089894387    0.0800
     30 H30        -8.7435   -3.9709   58.8787 H       1  ZINC000089894387    0.0900
     31 H31       -10.7663   -2.8151   60.8190 H       1  ZINC000089894387    0.0900
     32 H32        -9.5318   -3.9730   61.3704 H       1  ZINC000089894387    0.0700
     33 H33       -10.1518   -0.1514   59.6737 H       1  ZINC000089894387    0.1300
     34 H34       -10.7577    1.8853   60.9158 H       1  ZINC000089894387    0.1400
     35 H35       -10.0943    2.1354   63.2724 H       1  ZINC000089894387    0.1400
     36 H36        -8.2177   -1.6944   63.1583 H       1  ZINC000089894387    0.1400
     37 H37       -13.1864   -1.5805   54.4196 H       1  ZINC000089894387    0.0800
     38 H38       -13.1501   -3.0709   52.4565 H       1  ZINC000089894387    0.0700
     39 H39       -14.0634   -4.3070   53.3566 H       1  ZINC000089894387    0.0800
     40 H40       -15.0331   -1.4937   52.6727 H       1  ZINC000089894387    0.0500
     41 H41       -15.5882   -3.0073   51.9178 H       1  ZINC000089894387    0.0900
     42 H42       -15.6116   -1.0787   54.9957 H       1  ZINC000089894387    0.0500
     43 H43       -16.5706   -2.3025   55.8626 H       1  ZINC000089894387    0.1000
     44 H44       -14.6694   -3.8723   55.7899 H       1  ZINC000089894387    0.0800
     45 H45       -14.1689   -2.3400   56.5474 H       1  ZINC000089894387    0.0800
@<TRIPOS>BOND
     1     1     2    1
     2     1    24    1
     3     1    25    1
     4     1    26    1
     5     2     3    1
     6     2     4    1
     7     2    18    1
     8     4     5   am
     9     4    27    1
    10     5     6    2
    11     5     7   am
    12     7     8    1
    13     7    28    1
    14     8     9    1
    15     8    29    1
    16     8    30    1
    17     9    10    1
    18     9    31    1
    19     9    32    1
    20    10    11    1
    21    11    17   ar
    22    11    12   ar
    23    12    13   ar
    24    12    33    1
    25    13    14   ar
    26    13    34    1
    27    14    15   ar
    28    14    35    1
    29    15    16    1
    30    15    17   ar
    31    17    36    1
    32    18    23    1
    33    18    19    1
    34    18    37    1
    35    19    20    1
    36    19    38    1
    37    19    39    1
    38    20    21    1
    39    20    40    1
    40    20    41    1
    41    21    22    1
    42    22    23    1
    43    22    42    1
    44    22    43    1
    45    23    44    1
    46    23    45    1
@<TRIPOS>SUBSTRUCTURE
     1 ZINC000089894387        1 TEMP              0 ****  ****    0 ROOT


##########                                Name:    ZINC000431691749
##########                DOCK_Rotatable_Bonds:                   4
##########                         Heavy_Atoms:                  24
##########                    Molecular_Weight:             328.454
##########                DOCK_Rotatable_Bonds:                   4
##########                       Formal_Charge:         -0.00999957
##########                     HBond_Acceptors:                   4
##########                        HBond_Donors:                   0
##########                         Heavy_Atoms:                  24
##########                          Grid_Score:          -30.134855
##########                     Grid_vdw_energy:          -29.685593
##########                      Grid_es_energy:           -0.449263
##########           Internal_energy_repulsive:          112.994530

@<TRIPOS>MOLECULE
ZINC000431691749
 52 54 1 0 0
SMALL
USER_CHARGES


@<TRIPOS>ATOM
      1 C1        -10.3967    0.5024   54.5592 C.3     1  ZINC000431691749   -0.1200
      2 C2        -10.9037   -0.8914   54.2924 C.ar    1  ZINC000431691749   -0.0800
      3 C3        -11.0558   -1.3344   52.9921 C.ar    1  ZINC000431691749   -0.1200
      4 C4        -11.5210   -2.6131   52.7472 C.ar    1  ZINC000431691749   -0.1100
      5 C5        -11.8335   -3.4488   53.8029 C.ar    1  ZINC000431691749   -0.1100
      6 C6        -11.6805   -3.0060   55.1037 C.ar    1  ZINC000431691749   -0.0800
      7 C7        -12.0215   -3.9170   56.2548 C.3     1  ZINC000431691749    0.2000
      8 H8        -11.4506   -4.8413   56.1680 H       1  ZINC000431691749    0.1100
      9 N9        -11.6880   -3.2537   57.5177 N.am    1  ZINC000431691749   -0.5700
     10 C10       -10.7747   -3.7131   58.3959 C.2     1  ZINC000431691749    0.5200
     11 O11       -10.0998   -4.7150   58.2938 O.2     1  ZINC000431691749   -0.4400
     12 C12       -10.7661   -2.7158   59.5375 C.3     1  ZINC000431691749    0.0900
     13 H13       -11.0597   -3.1978   60.4700 H       1  ZINC000431691749    0.1300
     14 C14        -9.3858   -2.0708   59.6783 C.3     1  ZINC000431691749   -0.1500
     15 N15       -11.7697   -1.7166   59.1319 N.am    1  ZINC000431691749   -0.6000
     16 C16       -12.1651   -0.5201   59.8790 C.3     1  ZINC000431691749    0.1500
     17 C17       -13.6780   -0.4284   60.1394 C.3     1  ZINC000431691749   -0.1600
     18 C18       -13.4233   -1.2178   61.4343 C.3     1  ZINC000431691749   -0.1400
     19 C19       -11.9913   -0.6586   61.4007 C.3     1  ZINC000431691749   -0.1500
     20 C20       -12.2481   -2.1141   57.9392 C.2     1  ZINC000431691749    0.7000
     21 O21       -13.0995   -1.5095   57.3172 O.2     1  ZINC000431691749   -0.5300
     22 C22       -13.5174   -4.2368   56.2262 C.3     1  ZINC000431691749   -0.0700
     23 C23       -13.7490   -5.5222   55.4294 C.3     1  ZINC000431691749   -0.1400
     24 C24       -14.0261   -4.4249   57.6568 C.3     1  ZINC000431691749   -0.1400
     25 C25       -14.2731   -3.0830   55.5638 C.3     1  ZINC000431691749   -0.1600
     26 C26       -11.2114   -1.7291   55.3484 C.ar    1  ZINC000431691749   -0.1100
     27 H27        -9.3089    0.4867   54.6258 H       1  ZINC000431691749    0.0700
     28 H28       -10.7016    1.1616   53.7464 H       1  ZINC000431691749    0.0700
     29 H29       -10.8130    0.8669   55.4983 H       1  ZINC000431691749    0.0700
     30 H30       -10.8117   -0.6815   52.1671 H       1  ZINC000431691749    0.1200
     31 H31       -11.6405   -2.9590   51.7311 H       1  ZINC000431691749    0.1200
     32 H32       -12.1975   -4.4474   53.6117 H       1  ZINC000431691749    0.1100
     33 H33        -9.1201   -1.5737   58.7454 H       1  ZINC000431691749    0.0700
     34 H34        -9.4073   -1.3394   60.4864 H       1  ZINC000431691749    0.0800
     35 H35        -8.6468   -2.8396   59.9037 H       1  ZINC000431691749    0.0800
     36 H36       -11.7345    0.3948   59.4718 H       1  ZINC000431691749    0.1000
     37 H37       -14.0307    0.5887   60.3103 H       1  ZINC000431691749    0.0900
     38 H38       -14.2801   -0.9694   59.4095 H       1  ZINC000431691749    0.0700
     39 H39       -14.0098   -0.8657   62.2828 H       1  ZINC000431691749    0.0700
     40 H40       -13.4731   -2.2988   61.3036 H       1  ZINC000431691749    0.0800
     41 H41       -11.2317   -1.3853   61.6891 H       1  ZINC000431691749    0.1000
     42 H42       -11.8829    0.2956   61.9164 H       1  ZINC000431691749    0.0900
     43 H43       -13.2107   -6.3442   55.9013 H       1  ZINC000431691749    0.0600
     44 H44       -14.8147   -5.7501   55.4091 H       1  ZINC000431691749    0.0600
     45 H45       -13.3866   -5.3882   54.4102 H       1  ZINC000431691749    0.0600
     46 H46       -13.8611   -3.5092   58.2245 H       1  ZINC000431691749    0.0500
     47 H47       -15.0918   -4.6528   57.6366 H       1  ZINC000431691749    0.0600
     48 H48       -13.4878   -5.2469   58.1287 H       1  ZINC000431691749    0.0500
     49 H49       -13.6002   -2.5429   54.8979 H       1  ZINC000431691749    0.0700
     50 H50       -15.1111   -3.4793   54.9905 H       1  ZINC000431691749    0.0400
     51 H51       -14.6463   -2.4050   56.3314 H       1  ZINC000431691749    0.1000
     52 H52       -11.0918   -1.3833   56.3646 H       1  ZINC000431691749    0.1300
@<TRIPOS>BOND
     1     1     2    1
     2     1    27    1
     3     1    28    1
     4     1    29    1
     5     2    26   ar
     6     2     3   ar
     7     3     4   ar
     8     3    30    1
     9     4     5   ar
    10     4    31    1
    11     5     6   ar
    12     5    32    1
    13     6     7    1
    14     6    26   ar
    15     7     8    1
    16     7     9    1
    17     7    22    1
    18     9    20   am
    19     9    10   am
    20    10    11    2
    21    10    12    1
    22    12    13    1
    23    12    14    1
    24    12    15    1
    25    14    33    1
    26    14    34    1
    27    14    35    1
    28    15    16    1
    29    15    20   am
    30    16    19    1
    31    16    17    1
    32    16    36    1
    33    17    18    1
    34    17    37    1
    35    17    38    1
    36    18    19    1
    37    18    39    1
    38    18    40    1
    39    19    41    1
    40    19    42    1
    41    20    21    2
    42    22    23    1
    43    22    24    1
    44    22    25    1
    45    23    43    1
    46    23    44    1
    47    23    45    1
    48    24    46    1
    49    24    47    1
    50    24    48    1
    51    25    49    1
    52    25    50    1
    53    25    51    1
    54    26    52    1
@<TRIPOS>SUBSTRUCTURE
     1 ZINC000431691749        1 TEMP              0 ****  ****    0 ROOT


##########                                Name:    ZINC000826052721
##########                DOCK_Rotatable_Bonds:                   3
##########                         Heavy_Atoms:                  29
##########                    Molecular_Weight:             393.399
##########                DOCK_Rotatable_Bonds:                   3
##########                       Formal_Charge:        -4.47035e-07
##########                     HBond_Acceptors:                   9
##########                        HBond_Donors:                   2
##########                         Heavy_Atoms:                  29
##########                          Grid_Score:          -30.127144
##########                     Grid_vdw_energy:          -28.519142
##########                      Grid_es_energy:           -1.608002
##########           Internal_energy_repulsive:           34.822552

@<TRIPOS>MOLECULE
ZINC000826052721
 46 50 1 0 0
SMALL
USER_CHARGES


@<TRIPOS>ATOM
      1 C1         -7.7446    3.4007   57.6024 C.3     1  ZINC000826052721   -0.0400
      2 N2         -7.9531    2.3300   56.6186 N.4     1  ZINC000826052721   -0.3800
      3 H3         -7.3130    1.5722   56.8034 H       1  ZINC000826052721    0.4300
      4 C4         -7.7191    2.8515   55.2689 C.3     1  ZINC000826052721    0.0500
      5 C5         -8.0693    1.8162   54.2330 C.ar    1  ZINC000826052721   -0.1300
      6 C6         -7.5624    1.9634   52.9509 C.ar    1  ZINC000826052721   -0.1000
      7 C7         -7.8648    1.0392   51.9707 C.ar    1  ZINC000826052721   -0.1000
      8 C8         -8.6771   -0.0390   52.2677 C.ar    1  ZINC000826052721   -0.0800
      9 C9         -9.1816   -0.1881   53.5445 C.ar    1  ZINC000826052721   -0.0800
     10 C10        -8.8775    0.7386   54.5290 C.ar    1  ZINC000826052721   -0.1200
     11 C11        -9.4452    0.5383   55.9110 C.3     1  ZINC000826052721    0.1100
     12 H12        -8.8874   -0.2467   56.4216 H       1  ZINC000826052721    0.1100
     13 N13       -10.8569    0.1458   55.8069 N.3     1  ZINC000826052721   -0.6200
     14 C14       -11.0083   -1.2149   55.9995 C.ar    1  ZINC000826052721    0.1600
     15 C15       -11.6121   -2.0196   55.0273 C.ar    1  ZINC000826052721   -0.0400
     16 C16       -12.1030   -1.4253   53.7670 C.2     1  ZINC000826052721    0.0700
     17 N17       -13.1234   -0.5755   53.6283 N.2     1  ZINC000826052721   -0.3800
     18 N18       -13.2247   -0.2938   52.3742 N.2     1  ZINC000826052721   -0.1600
     19 N19       -12.3209   -0.9349   51.7200 N.2     1  ZINC000826052721   -0.1700
     20 N20       -11.6173   -1.6366   52.5413 N.pl3   1  ZINC000826052721   -0.3400
     21 C21       -11.7427   -3.3965   55.2588 C.ar    1  ZINC000826052721    0.1800
     22 N22       -11.3216   -3.9497   56.3682 N.ar    1  ZINC000826052721   -0.4700
     23 C23       -10.7398   -3.2346   57.3403 C.ar    1  ZINC000826052721    0.0900
     24 C24       -10.2981   -3.8545   58.5233 C.ar    1  ZINC000826052721    0.1700
     25 F25       -10.4564   -5.1857   58.6906 F       1  ZINC000826052721   -0.1100
     26 C26        -9.7088   -3.1076   59.5004 C.ar    1  ZINC000826052721   -0.1900
     27 C27        -9.5363   -1.7331   59.3472 C.ar    1  ZINC000826052721    0.1300
     28 F28        -8.9494   -1.0197   60.3330 F       1  ZINC000826052721   -0.1300
     29 C29        -9.9539   -1.0994   58.2126 C.ar    1  ZINC000826052721   -0.1500
     30 C30       -10.5630   -1.8387   57.1889 C.ar    1  ZINC000826052721   -0.0600
     31 C31        -9.3366    1.8393   56.7073 C.3     1  ZINC000826052721    0.0000
     32 H32        -8.4391    4.2170   57.4037 H       1  ZINC000826052721    0.1200
     33 H33        -7.9189    3.0114   58.6056 H       1  ZINC000826052721    0.1300
     34 H34        -6.7211    3.7682   57.5281 H       1  ZINC000826052721    0.1200
     35 H35        -6.6684    3.1225   55.1654 H       1  ZINC000826052721    0.1400
     36 H36        -8.3349    3.7375   55.1142 H       1  ZINC000826052721    0.1400
     37 H37        -6.9274    2.8054   52.7177 H       1  ZINC000826052721    0.1300
     38 H38        -7.4672    1.1583   50.9737 H       1  ZINC000826052721    0.1300
     39 H39        -8.9162   -0.7634   51.5030 H       1  ZINC000826052721    0.1300
     40 H40        -9.8156   -1.0309   53.7770 H       1  ZINC000826052721    0.1400
     41 H41       -11.2473    0.4312   54.9214 H       1  ZINC000826052721    0.4100
     42 H42       -12.2059   -4.0154   54.5045 H       1  ZINC000826052721    0.1800
     43 H43        -9.3711   -3.5883   60.4067 H       1  ZINC000826052721    0.1600
     44 H44        -9.8160   -0.0337   58.1042 H       1  ZINC000826052721    0.1400
     45 H45       -10.0165    2.5818   56.2897 H       1  ZINC000826052721    0.1400
     46 H46        -9.5911    1.6521   57.7506 H       1  ZINC000826052721    0.1400
@<TRIPOS>BOND
     1     1     2    1
     2     1    32    1
     3     1    33    1
     4     1    34    1
     5     2     3    1
     6     2    31    1
     7     2     4    1
     8     4     5    1
     9     4    35    1
    10     4    36    1
    11     5    10   ar
    12     5     6   ar
    13     6     7   ar
    14     6    37    1
    15     7     8   ar
    16     7    38    1
    17     8     9   ar
    18     8    39    1
    19     9    10   ar
    20     9    40    1
    21    10    11    1
    22    11    12    1
    23    11    13    1
    24    11    31    1
    25    13    14    1
    26    13    41    1
    27    14    30   ar
    28    14    15   ar
    29    15    16    1
    30    15    21   ar
    31    16    20    1
    32    16    17    2
    33    17    18    1
    34    18    19    2
    35    19    20    1
    36    21    22   ar
    37    21    42    1
    38    22    23   ar
    39    23    30   ar
    40    23    24   ar
    41    24    25    1
    42    24    26   ar
    43    26    27   ar
    44    26    43    1
    45    27    28    1
    46    27    29   ar
    47    29    30   ar
    48    29    44    1
    49    31    45    1
    50    31    46    1
@<TRIPOS>SUBSTRUCTURE
     1 ZINC000826052721        1 TEMP              0 ****  ****    0 ROOT


##########                                Name:    ZINC000863216249
##########                DOCK_Rotatable_Bonds:                   5
##########                         Heavy_Atoms:                  23
##########                    Molecular_Weight:             396.351
##########                DOCK_Rotatable_Bonds:                   5
##########                       Formal_Charge:         -0.00999944
##########                     HBond_Acceptors:                   5
##########                        HBond_Donors:                   1
##########                         Heavy_Atoms:                  23
##########                          Grid_Score:          -30.111870
##########                     Grid_vdw_energy:          -29.672546
##########                      Grid_es_energy:           -0.439324
##########           Internal_energy_repulsive:           22.309441

@<TRIPOS>MOLECULE
ZINC000863216249
 45 48 1 0 0
SMALL
USER_CHARGES


@<TRIPOS>ATOM
      1 S1         -9.4006    0.4714   56.4459 S.2     1  ZINC000863216249   -0.5900
      2 C2        -10.4964   -0.8407   56.5386 C.2     1  ZINC000863216249    0.5600
      3 N3        -10.8549   -1.3358   57.7398 N.am    1  ZINC000863216249   -0.6800
      4 C4        -10.3022   -0.7550   58.9659 C.3     1  ZINC000863216249    0.1200
      5 C5        -11.2788   -0.9800   60.1220 C.3     1  ZINC000863216249    0.0400
      6 N6        -10.8699   -0.1653   61.2740 N.3     1  ZINC000863216249   -0.5300
      7 C7         -9.6509   -0.7044   61.8945 C.3     1  ZINC000863216249    0.0000
      8 C8         -9.2276    0.2059   63.0503 C.3     1  ZINC000863216249    0.0600
      9 O9        -10.3062    0.3168   63.9828 O.3     1  ZINC000863216249   -0.3800
     10 C10       -11.5091    0.8392   63.4122 C.3     1  ZINC000863216249    0.0600
     11 C11       -11.9555   -0.0647   62.2600 C.3     1  ZINC000863216249    0.0200
     12 N12       -11.0049   -1.3751   55.4105 N.am    1  ZINC000863216249   -0.5100
     13 C13       -10.6912   -0.9236   54.0502 C.3     1  ZINC000863216249    0.1200
     14 C14       -11.5093   -1.8382   53.1330 C.3     1  ZINC000863216249   -0.1100
     15 C15       -12.1389   -1.3206   51.8455 C.3     1  ZINC000863216249   -0.1500
     16 C16       -10.9700   -2.3081   51.7876 C.3     1  ZINC000863216249   -0.1500
     17 C17       -12.2491   -2.7682   54.0594 C.ar    1  ZINC000863216249   -0.0700
     18 C18       -13.1330   -3.7989   53.8046 C.ar    1  ZINC000863216249   -0.0800
     19 C19       -13.6866   -4.5152   54.8493 C.ar    1  ZINC000863216249   -0.1000
     20 C20       -13.3535   -4.1978   56.1540 C.ar    1  ZINC000863216249   -0.0700
     21 Br21      -14.1089   -5.1765   57.5848 Br      1  ZINC000863216249   -0.0400
     22 C22       -12.4713   -3.1694   56.4140 C.ar    1  ZINC000863216249   -0.0900
     23 C23       -11.9043   -2.4452   55.3646 C.ar    1  ZINC000863216249    0.1400
     24 H24       -11.4787   -2.0767   57.7924 H       1  ZINC000863216249    0.4000
     25 H25        -9.3497   -1.2321   59.1968 H       1  ZINC000863216249    0.0900
     26 H26       -10.1477    0.3146   58.8238 H       1  ZINC000863216249    0.1000
     27 H27       -12.2827   -0.6912   59.8109 H       1  ZINC000863216249    0.0900
     28 H28       -11.2740   -2.0334   60.4019 H       1  ZINC000863216249    0.0400
     29 H29        -9.8487   -1.7068   62.2742 H       1  ZINC000863216249    0.0500
     30 H30        -8.8530   -0.7462   61.1530 H       1  ZINC000863216249    0.1000
     31 H31        -8.3574   -0.2204   63.5493 H       1  ZINC000863216249    0.1000
     32 H32        -8.9782    1.1938   62.6630 H       1  ZINC000863216249    0.0600
     33 H33       -12.2889    0.8710   64.1731 H       1  ZINC000863216249    0.1000
     34 H34       -11.3261    1.8455   63.0355 H       1  ZINC000863216249    0.0600
     35 H35       -12.8400    0.3605   61.7856 H       1  ZINC000863216249    0.0900
     36 H36       -12.1901   -1.0569   62.6457 H       1  ZINC000863216249    0.0500
     37 H37       -10.9928    0.1153   53.9164 H       1  ZINC000863216249    0.0900
     38 H38        -9.6263   -1.0391   53.8485 H       1  ZINC000863216249    0.0900
     39 H39       -13.1281   -1.6954   51.5827 H       1  ZINC000863216249    0.1100
     40 H40       -11.9383   -0.2860   51.5673 H       1  ZINC000863216249    0.1100
     41 H41       -10.0006   -1.9229   51.4713 H       1  ZINC000863216249    0.1100
     42 H42       -11.1904   -3.3322   51.4866 H       1  ZINC000863216249    0.1100
     43 H43       -13.3927   -4.0456   52.7858 H       1  ZINC000863216249    0.1400
     44 H44       -14.3777   -5.3202   54.6475 H       1  ZINC000863216249    0.1400
     45 H45       -12.2153   -2.9262   57.4347 H       1  ZINC000863216249    0.1900
@<TRIPOS>BOND
     1     1     2    2
     2     2     3   am
     3     2    12   am
     4     3     4    1
     5     3    24    1
     6     4     5    1
     7     4    25    1
     8     4    26    1
     9     5     6    1
    10     5    27    1
    11     5    28    1
    12     6    11    1
    13     6     7    1
    14     7     8    1
    15     7    29    1
    16     7    30    1
    17     8     9    1
    18     8    31    1
    19     8    32    1
    20     9    10    1
    21    10    11    1
    22    10    33    1
    23    10    34    1
    24    11    35    1
    25    11    36    1
    26    12    23    1
    27    12    13    1
    28    13    14    1
    29    13    37    1
    30    13    38    1
    31    14    16    1
    32    14    15    1
    33    14    17    1
    34    15    16    1
    35    15    39    1
    36    15    40    1
    37    16    41    1
    38    16    42    1
    39    17    23   ar
    40    17    18   ar
    41    18    19   ar
    42    18    43    1
    43    19    20   ar
    44    19    44    1
    45    20    21    1
    46    20    22   ar
    47    22    23   ar
    48    22    45    1
@<TRIPOS>SUBSTRUCTURE
     1 ZINC000863216249        1 TEMP              0 ****  ****    0 ROOT


##########                                Name:    ZINC001318556452
##########                DOCK_Rotatable_Bonds:                   4
##########                         Heavy_Atoms:                  26
##########                    Molecular_Weight:             368.456
##########                DOCK_Rotatable_Bonds:                   4
##########                       Formal_Charge:          -0.0200005
##########                     HBond_Acceptors:                   6
##########                        HBond_Donors:                   1
##########                         Heavy_Atoms:                  26
##########                          Grid_Score:          -30.099033
##########                     Grid_vdw_energy:          -28.555342
##########                      Grid_es_energy:           -1.543691
##########           Internal_energy_repulsive:           18.641603

@<TRIPOS>MOLECULE
ZINC001318556452
 46 48 1 0 0
SMALL
USER_CHARGES


@<TRIPOS>ATOM
      1 C1        -12.4494   -0.4601   52.7246 C.3     1  ZINC001318556452   -0.1300
      2 C2        -13.5818   -1.4522   52.6600 C.ar    1  ZINC001318556452   -0.1000
      3 C3        -14.5750   -1.3069   51.7119 C.ar    1  ZINC001318556452   -0.0500
      4 C4        -14.5263   -0.1548   50.7415 C.3     1  ZINC001318556452   -0.4100
      5 S5        -13.6435   -0.6649   49.2412 S.o     1  ZINC001318556452    1.2500
      6 C6        -13.6884    0.8291   48.2134 C.3     1  ZINC001318556452   -0.4900
      7 O7        -14.3661   -1.7050   48.5969 O.2     1  ZINC001318556452   -0.8400
      8 C8        -15.6142   -2.2175   51.6514 C.ar    1  ZINC001318556452   -0.1200
      9 C9        -15.6629   -3.2756   52.5401 C.ar    1  ZINC001318556452   -0.1000
     10 C10       -14.6731   -3.4265   53.4917 C.ar    1  ZINC001318556452   -0.1200
     11 C11       -13.6246   -2.5175   53.5509 C.ar    1  ZINC001318556452    0.1400
     12 N12       -12.6210   -2.6674   54.5124 N.am    1  ZINC001318556452   -0.6600
     13 C13       -12.9291   -2.6075   55.8231 C.2     1  ZINC001318556452    0.5600
     14 O14       -14.0792   -2.4232   56.1690 O.2     1  ZINC001318556452   -0.5000
     15 C15       -11.8647   -2.7665   56.8428 C.2     1  ZINC001318556452   -0.0300
     16 C16       -11.5634   -3.9977   57.3514 C.2     1  ZINC001318556452   -0.1600
     17 C17       -10.5089   -4.1223   58.3547 C.2     1  ZINC001318556452    0.5300
     18 O18       -10.2397   -5.2202   58.8089 O.2     1  ZINC001318556452   -0.5200
     19 N19        -9.8309   -3.0438   58.7841 N.am    1  ZINC001318556452   -0.5200
     20 C20        -8.7798   -3.2108   59.7908 C.3     1  ZINC001318556452    0.0600
     21 C21       -10.1044   -1.7839   58.2960 C.ar    1  ZINC001318556452    0.1800
     22 C22        -9.3905   -0.6797   58.7539 C.ar    1  ZINC001318556452   -0.1700
     23 C23        -9.6742    0.5739   58.2575 C.ar    1  ZINC001318556452   -0.0600
     24 C24       -10.6668    0.7485   57.3031 C.ar    1  ZINC001318556452   -0.1500
     25 C25       -11.3798   -0.3208   56.8396 C.ar    1  ZINC001318556452   -0.0600
     26 C26       -11.1053   -1.6025   57.3248 C.ar    1  ZINC001318556452   -0.1100
     27 H27       -11.6363   -0.7943   52.0802 H       1  ZINC001318556452    0.0800
     28 H28       -12.8014    0.5154   52.3889 H       1  ZINC001318556452    0.0800
     29 H29       -12.0914   -0.3835   53.7513 H       1  ZINC001318556452    0.0700
     30 H30       -15.5417    0.1444   50.4816 H       1  ZINC001318556452    0.1000
     31 H31       -14.0062    0.6856   51.2011 H       1  ZINC001318556452    0.1300
     32 H32       -13.1893    1.6450   48.7362 H       1  ZINC001318556452    0.1100
     33 H33       -13.1782    0.6364   47.2696 H       1  ZINC001318556452    0.1100
     34 H34       -14.7248    1.1038   48.0168 H       1  ZINC001318556452    0.0800
     35 H35       -16.3896   -2.1017   50.9086 H       1  ZINC001318556452    0.1200
     36 H36       -16.4759   -3.9848   52.4904 H       1  ZINC001318556452    0.1300
     37 H37       -14.7120   -4.2530   54.1857 H       1  ZINC001318556452    0.1500
     38 H38       -11.7029   -2.8146   54.2362 H       1  ZINC001318556452    0.4100
     39 H39       -12.1007   -4.8721   57.0148 H       1  ZINC001318556452    0.1600
     40 H40        -8.6993   -4.2637   60.0609 H       1  ZINC001318556452    0.1000
     41 H41        -7.8291   -2.8662   59.3840 H       1  ZINC001318556452    0.0800
     42 H42        -9.0290   -2.6265   60.6766 H       1  ZINC001318556452    0.0800
     43 H43        -8.6165   -0.8055   59.4966 H       1  ZINC001318556452    0.1400
     44 H44        -9.1193    1.4288   58.6147 H       1  ZINC001318556452    0.1300
     45 H45       -10.8775    1.7377   56.9242 H       1  ZINC001318556452    0.1300
     46 H46       -12.1505   -0.1767   56.0969 H       1  ZINC001318556452    0.1700
@<TRIPOS>BOND
     1     1     2    1
     2     1    27    1
     3     1    28    1
     4     1    29    1
     5     2    11   ar
     6     2     3   ar
     7     3     4    1
     8     3     8   ar
     9     4     5    1
    10     4    30    1
    11     4    31    1
    12     5     6    1
    13     5     7    2
    14     6    32    1
    15     6    33    1
    16     6    34    1
    17     8     9   ar
    18     8    35    1
    19     9    10   ar
    20     9    36    1
    21    10    11   ar
    22    10    37    1
    23    11    12    1
    24    12    13   am
    25    12    38    1
    26    13    14    2
    27    13    15    1
    28    15    26    1
    29    15    16    2
    30    16    17    1
    31    16    39    1
    32    17    18    2
    33    17    19   am
    34    19    20    1
    35    19    21    1
    36    20    40    1
    37    20    41    1
    38    20    42    1
    39    21    26   ar
    40    21    22   ar
    41    22    23   ar
    42    22    43    1
    43    23    24   ar
    44    23    44    1
    45    24    25   ar
    46    24    45    1
    47    25    26   ar
    48    25    46    1
@<TRIPOS>SUBSTRUCTURE
     1 ZINC001318556452        1 TEMP              0 ****  ****    0 ROOT


##########                                Name:    ZINC000618094467
##########                DOCK_Rotatable_Bonds:                   5
##########                         Heavy_Atoms:                  27
##########                    Molecular_Weight:             370.492
##########                DOCK_Rotatable_Bonds:                   5
##########                       Formal_Charge:                0.03
##########                     HBond_Acceptors:                   5
##########                        HBond_Donors:                   0
##########                         Heavy_Atoms:                  27
##########                          Grid_Score:          -30.055387
##########                     Grid_vdw_energy:          -29.384829
##########                      Grid_es_energy:           -0.670559
##########           Internal_energy_repulsive:          108.664917

@<TRIPOS>MOLECULE
ZINC000618094467
 57 59 1 0 0
SMALL
USER_CHARGES


@<TRIPOS>ATOM
      1 C1        -16.3596   -0.1912   59.7651 C.3     1  ZINC000618094467   -0.1500
      2 C2        -15.1526   -0.6758   58.9594 C.3     1  ZINC000618094467   -0.1000
      3 C3        -14.8165   -2.1139   59.3592 C.3     1  ZINC000618094467   -0.1100
      4 H4        -14.5806   -2.1497   60.4228 H       1  ZINC000618094467    0.1000
      5 C5        -16.0181   -3.0168   59.0728 C.3     1  ZINC000618094467   -0.1500
      6 C6        -13.6285   -2.5916   58.5647 C.2     1  ZINC000618094467    0.5200
      7 O7        -13.7684   -3.4551   57.7246 O.2     1  ZINC000618094467   -0.5000
      8 N8        -12.4105   -2.0593   58.7875 N.am    1  ZINC000618094467   -0.6100
      9 C9        -12.2082   -1.0136   59.7960 C.3     1  ZINC000618094467    0.1400
     10 C10       -10.9711   -1.3187   60.6027 C.ar    1  ZINC000618094467   -0.1000
     11 C11       -10.7516   -0.5790   61.7564 C.ar    1  ZINC000618094467   -0.1100
     12 C12        -9.6321   -0.8049   62.5310 C.ar    1  ZINC000618094467   -0.1200
     13 C13        -8.7221   -1.7746   62.1539 C.ar    1  ZINC000618094467   -0.1100
     14 C14        -8.9414   -2.5133   61.0096 C.ar    1  ZINC000618094467   -0.1200
     15 C15       -10.0707   -2.2922   60.2311 C.ar    1  ZINC000618094467   -0.0600
     16 C16       -10.2578   -3.1553   59.0112 C.3     1  ZINC000618094467   -0.0800
     17 C17       -11.2290   -2.5085   58.0328 C.3     1  ZINC000618094467    0.1200
     18 H18       -10.7547   -1.6513   57.5549 H       1  ZINC000618094467    0.1000
     19 C19       -11.6420   -3.5114   56.9866 C.2     1  ZINC000618094467    0.5500
     20 O20       -11.8157   -4.6718   57.2938 O.2     1  ZINC000618094467   -0.5200
     21 N21       -11.8184   -3.1189   55.7094 N.am    1  ZINC000618094467   -0.6100
     22 C22       -12.2266   -4.0878   54.6841 C.3     1  ZINC000618094467    0.1200
     23 C23       -13.5331   -3.6054   54.0412 C.3     1  ZINC000618094467   -0.1600
     24 H24       -13.7487   -4.2029   53.1553 H       1  ZINC000618094467    0.1100
     25 C25       -14.6808   -3.7390   55.0442 C.3     1  ZINC000618094467   -0.1400
     26 C26       -13.3653   -2.1541   53.6483 C.2     1  ZINC000618094467    0.3700
     27 O27       -13.6015   -1.7868   52.5224 O.2     1  ZINC000618094467   -0.4400
     28 C28       -12.8950   -1.1738   54.7004 C.3     1  ZINC000618094467   -0.1600
     29 H29       -13.6594   -1.0664   55.4699 H       1  ZINC000618094467    0.1100
     30 C30       -12.6215    0.1851   54.0529 C.3     1  ZINC000618094467   -0.1400
     31 C31       -11.6103   -1.7160   55.3280 C.3     1  ZINC000618094467    0.1400
     32 H32       -16.1244   -0.2271   60.8289 H       1  ZINC000618094467    0.0500
     33 H33       -16.5989    0.8333   59.4803 H       1  ZINC000618094467    0.0600
     34 H34       -17.2152   -0.8347   59.5602 H       1  ZINC000618094467    0.0600
     35 H35       -15.3877   -0.6399   57.8956 H       1  ZINC000618094467    0.0700
     36 H36       -14.2969   -0.0324   59.1643 H       1  ZINC000618094467    0.0700
     37 H37       -16.3402   -2.8766   58.0410 H       1  ZINC000618094467    0.0700
     38 H38       -15.7348   -4.0581   59.2266 H       1  ZINC000618094467    0.0700
     39 H39       -16.8351   -2.7591   59.7468 H       1  ZINC000618094467    0.0700
     40 H40       -12.0895   -0.0500   59.3006 H       1  ZINC000618094467    0.0900
     41 H41       -13.0731   -0.9761   60.4584 H       1  ZINC000618094467    0.1100
     42 H42       -11.4620    0.1797   62.0499 H       1  ZINC000618094467    0.1300
     43 H43        -9.4673   -0.2264   63.4279 H       1  ZINC000618094467    0.1300
     44 H44        -7.8417   -1.9534   62.7533 H       1  ZINC000618094467    0.1200
     45 H45        -8.2288   -3.2700   60.7162 H       1  ZINC000618094467    0.1200
     46 H46        -9.2944   -3.2971   58.5213 H       1  ZINC000618094467    0.0900
     47 H47       -10.6508   -4.1254   59.3153 H       1  ZINC000618094467    0.1000
     48 H48       -11.4505   -4.1628   53.9225 H       1  ZINC000618094467    0.0700
     49 H49       -12.3845   -5.0629   55.1451 H       1  ZINC000618094467    0.0900
     50 H50       -14.5080   -3.0679   55.8856 H       1  ZINC000618094467    0.0600
     51 H51       -15.6206   -3.4774   54.5579 H       1  ZINC000618094467    0.0600
     52 H52       -14.7315   -4.7668   55.4036 H       1  ZINC000618094467    0.0700
     53 H53       -13.5365    0.5593   53.5935 H       1  ZINC000618094467    0.0700
     54 H54       -12.2830    0.8886   54.8136 H       1  ZINC000618094467    0.0700
     55 H55       -11.8505    0.0757   53.2903 H       1  ZINC000618094467    0.0600
     56 H56       -11.3597   -1.1295   56.2119 H       1  ZINC000618094467    0.1100
     57 H57       -10.7970   -1.6566   54.6048 H       1  ZINC000618094467    0.0700
@<TRIPOS>BOND
     1     1     2    1
     2     1    32    1
     3     1    33    1
     4     1    34    1
     5     2     3    1
     6     2    35    1
     7     2    36    1
     8     3     4    1
     9     3     5    1
    10     3     6    1
    11     5    37    1
    12     5    38    1
    13     5    39    1
    14     6     7    2
    15     6     8   am
    16     8    17    1
    17     8     9    1
    18     9    10    1
    19     9    40    1
    20     9    41    1
    21    10    15   ar
    22    10    11   ar
    23    11    12   ar
    24    11    42    1
    25    12    13   ar
    26    12    43    1
    27    13    14   ar
    28    13    44    1
    29    14    15   ar
    30    14    45    1
    31    15    16    1
    32    16    17    1
    33    16    46    1
    34    16    47    1
    35    17    18    1
    36    17    19    1
    37    19    20    2
    38    19    21   am
    39    21    31    1
    40    21    22    1
    41    22    23    1
    42    22    48    1
    43    22    49    1
    44    23    24    1
    45    23    25    1
    46    23    26    1
    47    25    50    1
    48    25    51    1
    49    25    52    1
    50    26    27    2
    51    26    28    1
    52    28    29    1
    53    28    30    1
    54    28    31    1
    55    30    53    1
    56    30    54    1
    57    30    55    1
    58    31    56    1
    59    31    57    1
@<TRIPOS>SUBSTRUCTURE
     1 ZINC000618094467        1 TEMP              0 ****  ****    0 ROOT


##########                                Name:    ZINC000482910431
##########                DOCK_Rotatable_Bonds:                   7
##########                         Heavy_Atoms:                  29
##########                    Molecular_Weight:             414.867
##########                DOCK_Rotatable_Bonds:                   7
##########                       Formal_Charge:          -0.0300001
##########                     HBond_Acceptors:                   8
##########                        HBond_Donors:                   2
##########                         Heavy_Atoms:                  29
##########                          Grid_Score:          -30.046898
##########                     Grid_vdw_energy:          -29.550030
##########                      Grid_es_energy:           -0.496868
##########           Internal_energy_repulsive:           15.594631

@<TRIPOS>MOLECULE
ZINC000482910431
 49 51 1 0 0
SMALL
USER_CHARGES


@<TRIPOS>ATOM
      1 C1        -14.0217   -0.8915   48.2893 C.3     1  ZINC000482910431   -0.1500
      2 C2        -15.1509   -1.5464   49.0872 C.3     1  ZINC000482910431    0.0800
      3 C3        -16.3062   -0.5553   49.2435 C.3     1  ZINC000482910431   -0.1400
      4 C4        -15.6249   -2.7438   48.3744 C.1     1  ZINC000482910431    0.2100
      5 N5        -15.9907   -3.6680   47.8242 N.1     1  ZINC000482910431   -0.4300
      6 C6        -14.6404   -1.9416   50.4488 C.ar    1  ZINC000482910431   -0.1000
      7 C7        -15.4896   -2.5516   51.3537 C.ar    1  ZINC000482910431   -0.0900
      8 C8        -15.0247   -2.9154   52.6023 C.ar    1  ZINC000482910431   -0.1200
      9 C9        -13.7029   -2.6681   52.9486 C.ar    1  ZINC000482910431    0.1700
     10 N10       -13.2286   -3.0360   54.2128 N.am    1  ZINC000482910431   -0.6800
     11 C11       -13.6771   -2.3989   55.3124 C.2     1  ZINC000482910431    0.7100
     12 O12       -14.4937   -1.5044   55.2062 O.2     1  ZINC000482910431   -0.5500
     13 N13       -13.2203   -2.7532   56.5300 N.am    1  ZINC000482910431   -0.7300
     14 C14       -13.7065   -2.0594   57.7252 C.3     1  ZINC000482910431    0.1400
     15 H15       -14.4096   -1.2735   57.4495 H       1  ZINC000482910431    0.1400
     16 C16       -14.3687   -3.0604   58.7001 C.3     1  ZINC000482910431   -0.1400
     17 C17       -13.9453   -2.4906   60.0722 C.3     1  ZINC000482910431    0.0900
     18 N18       -12.7055   -1.7462   59.8214 N.am    1  ZINC000482910431   -0.5600
     19 C19       -11.8024   -1.3577   60.8176 C.ar    1  ZINC000482910431    0.2000
     20 C20       -10.5099   -1.8651   60.8204 C.ar    1  ZINC000482910431   -0.1600
     21 C21        -9.6193   -1.4808   61.8043 C.ar    1  ZINC000482910431   -0.0500
     22 C22       -10.0135   -0.5910   62.7870 C.ar    1  ZINC000482910431   -0.1000
     23 Cl23       -8.8917   -0.1104   64.0217 Cl      1  ZINC000482910431   -0.0500
     24 C24       -11.3029   -0.0820   62.7871 C.ar    1  ZINC000482910431    0.1400
     25 F25       -11.6857    0.7875   63.7477 F       1  ZINC000482910431   -0.1200
     26 C26       -12.1959   -0.4600   61.8011 C.ar    1  ZINC000482910431   -0.1900
     27 C27       -12.5490   -1.4827   58.5102 C.2     1  ZINC000482910431    0.5000
     28 O28       -11.6150   -0.8756   58.0303 O.2     1  ZINC000482910431   -0.4800
     29 C29       -12.8526   -2.0553   52.0376 C.ar    1  ZINC000482910431   -0.1400
     30 C30       -13.3222   -1.6987   50.7888 C.ar    1  ZINC000482910431   -0.0900
     31 H31       -13.6707   -0.0047   48.8172 H       1  ZINC000482910431    0.0800
     32 H32       -13.1987   -1.5975   48.1780 H       1  ZINC000482910431    0.0700
     33 H33       -14.3910   -0.6056   47.3044 H       1  ZINC000482910431    0.0700
     34 H34       -16.6755   -0.2695   48.2586 H       1  ZINC000482910431    0.0700
     35 H35       -17.1107   -1.0219   49.8119 H       1  ZINC000482910431    0.0700
     36 H36       -15.9552    0.3314   49.7714 H       1  ZINC000482910431    0.0800
     37 H37       -16.5177   -2.7434   51.0840 H       1  ZINC000482910431    0.1400
     38 H38       -15.6886   -3.3915   53.3087 H       1  ZINC000482910431    0.1400
     39 H39       -12.5770   -3.7496   54.2975 H       1  ZINC000482910431    0.4100
     40 H40       -12.5697   -3.4675   56.6148 H       1  ZINC000482910431    0.4000
     41 H41       -15.4532   -3.0510   58.5917 H       1  ZINC000482910431    0.1100
     42 H42       -13.9723   -4.0655   58.5561 H       1  ZINC000482910431    0.1000
     43 H43       -14.7154   -1.8219   60.4568 H       1  ZINC000482910431    0.0900
     44 H44       -13.7624   -3.3015   60.7772 H       1  ZINC000482910431    0.1000
     45 H45       -10.2009   -2.5603   60.0539 H       1  ZINC000482910431    0.1700
     46 H46        -8.6143   -1.8761   61.8063 H       1  ZINC000482910431    0.1500
     47 H47       -13.2005   -0.0634   61.8004 H       1  ZINC000482910431    0.1500
     48 H48       -11.8240   -1.8617   52.3040 H       1  ZINC000482910431    0.1300
     49 H49       -12.6612   -1.2225   50.0797 H       1  ZINC000482910431    0.1300
@<TRIPOS>BOND
     1     1     2    1
     2     1    31    1
     3     1    32    1
     4     1    33    1
     5     2     3    1
     6     2     4    1
     7     2     6    1
     8     3    34    1
     9     3    35    1
    10     3    36    1
    11     4     5    3
    12     6    30   ar
    13     6     7   ar
    14     7     8   ar
    15     7    37    1
    16     8     9   ar
    17     8    38    1
    18     9    10    1
    19     9    29   ar
    20    10    11   am
    21    10    39    1
    22    11    12    2
    23    11    13   am
    24    13    14    1
    25    13    40    1
    26    14    15    1
    27    14    27    1
    28    14    16    1
    29    16    17    1
    30    16    41    1
    31    16    42    1
    32    17    18    1
    33    17    43    1
    34    17    44    1
    35    18    19    1
    36    18    27   am
    37    19    26   ar
    38    19    20   ar
    39    20    21   ar
    40    20    45    1
    41    21    22   ar
    42    21    46    1
    43    22    23    1
    44    22    24   ar
    45    24    25    1
    46    24    26   ar
    47    26    47    1
    48    27    28    2
    49    29    30   ar
    50    29    48    1
    51    30    49    1
@<TRIPOS>SUBSTRUCTURE
     1 ZINC000482910431        1 TEMP              0 ****  ****    0 ROOT


##########                                Name:    ZINC000430767928
##########                DOCK_Rotatable_Bonds:                   4
##########                         Heavy_Atoms:                  25
##########                    Molecular_Weight:             358.505
##########                DOCK_Rotatable_Bonds:                   4
##########                       Formal_Charge:          -0.0100002
##########                     HBond_Acceptors:                   5
##########                        HBond_Donors:                   0
##########                         Heavy_Atoms:                  25
##########                          Grid_Score:          -30.019402
##########                     Grid_vdw_energy:          -29.468599
##########                      Grid_es_energy:           -0.550803
##########           Internal_energy_repulsive:           25.139090

@<TRIPOS>MOLECULE
ZINC000430767928
 51 55 1 0 0
SMALL
USER_CHARGES


@<TRIPOS>ATOM
      1 O1        -13.9338   -1.3238   54.4936 O.2     1  ZINC000430767928   -0.4600
      2 C2        -13.0815   -2.1513   54.7356 C.2     1  ZINC000430767928    0.5300
      3 C3        -12.9080   -2.9422   56.0098 C.3     1  ZINC000430767928    0.0400
      4 H4        -13.6785   -3.7015   56.1443 H       1  ZINC000430767928    0.1400
      5 C5        -12.7593   -2.0171   57.2352 C.3     1  ZINC000430767928   -0.1100
      6 C6        -11.8278   -2.8402   58.1614 C.3     1  ZINC000430767928   -0.1000
      7 H7        -12.4144   -3.3902   58.8972 H       1  ZINC000430767928    0.1000
      8 C8        -10.8253   -1.9204   58.8613 C.3     1  ZINC000430767928   -0.0800
      9 C9        -11.5789   -0.8116   59.5987 C.3     1  ZINC000430767928   -0.1100
     10 C10       -10.5763    0.1082   60.2985 C.3     1  ZINC000430767928   -0.1200
     11 C11        -9.7536   -0.7033   61.3013 C.3     1  ZINC000430767928   -0.1200
     12 C12        -9.0000   -1.8120   60.5639 C.3     1  ZINC000430767928   -0.1200
     13 C13       -10.0026   -2.7318   59.8641 C.3     1  ZINC000430767928   -0.1200
     14 C14       -11.0949   -3.8189   57.2184 C.3     1  ZINC000430767928    0.1600
     15 N15       -11.5420   -3.5147   55.8487 N.am    1  ZINC000430767928   -0.6400
     16 C16       -11.2825   -3.4592   54.5385 C.2     1  ZINC000430767928    0.7400
     17 O17       -10.4219   -4.1140   53.9837 O.2     1  ZINC000430767928   -0.5100
     18 N18       -12.0870   -2.5670   53.9203 N.am    1  ZINC000430767928   -0.5800
     19 C19       -11.9014   -2.1023   52.5434 C.3     1  ZINC000430767928    0.2600
     20 H20       -11.2236   -2.7771   52.0204 H       1  ZINC000430767928    0.1200
     21 C21       -13.2323   -2.0802   51.8370 C.2     1  ZINC000430767928   -0.2100
     22 C22       -14.2699   -2.8668   52.1268 C.2     1  ZINC000430767928   -0.1200
     23 C23       -15.3918   -2.6656   51.3413 C.2     1  ZINC000430767928   -0.1400
     24 C24       -15.2651   -1.7156   50.4135 C.2     1  ZINC000430767928   -0.2300
     25 S25       -13.6578   -1.0080   50.5091 S.3     1  ZINC000430767928    0.1700
     26 C26       -11.3076   -0.6923   52.5567 C.3     1  ZINC000430767928   -0.1700
     27 C27       -10.7462   -0.1748   53.8827 C.3     1  ZINC000430767928   -0.1700
     28 C28        -9.7951   -0.5646   52.7493 C.3     1  ZINC000430767928   -0.1600
     29 H29       -12.2912   -1.0738   56.9541 H       1  ZINC000430767928    0.0800
     30 H30       -13.7251   -1.8452   57.7106 H       1  ZINC000430767928    0.1000
     31 H31       -10.1603   -1.4769   58.1202 H       1  ZINC000430767928    0.0700
     32 H32       -12.1651   -0.2336   58.8842 H       1  ZINC000430767928    0.0600
     33 H33       -12.2439   -1.2552   60.3397 H       1  ZINC000430767928    0.0700
     34 H34        -9.9114    0.5516   59.5574 H       1  ZINC000430767928    0.0600
     35 H35       -11.1133    0.8980   60.8238 H       1  ZINC000430767928    0.0600
     36 H36        -9.0394   -0.0481   61.7999 H       1  ZINC000430767928    0.0600
     37 H37       -10.4186   -1.1468   62.0424 H       1  ZINC000430767928    0.0600
     38 H38        -8.3350   -1.3686   59.8228 H       1  ZINC000430767928    0.0600
     39 H39        -8.4139   -2.3902   61.2783 H       1  ZINC000430767928    0.0600
     40 H40       -10.6676   -3.1753   60.6051 H       1  ZINC000430767928    0.0700
     41 H41        -9.4656   -3.5216   59.3387 H       1  ZINC000430767928    0.0600
     42 H42       -10.0168   -3.6827   57.3039 H       1  ZINC000430767928    0.0900
     43 H43       -11.3626   -4.8461   57.4654 H       1  ZINC000430767928    0.0800
     44 H44       -14.2371   -3.6049   52.9145 H       1  ZINC000430767928    0.1400
     45 H45       -16.3004   -3.2348   51.4696 H       1  ZINC000430767928    0.1400
     46 H46       -16.0334   -1.4231   49.7130 H       1  ZINC000430767928    0.1600
     47 H47       -11.7940    0.0289   51.9000 H       1  ZINC000430767928    0.1200
     48 H48       -10.8633    0.8871   54.0985 H       1  ZINC000430767928    0.1000
     49 H49       -10.7999   -0.8388   54.7453 H       1  ZINC000430767928    0.1000
     50 H50        -9.2231   -1.4851   52.8664 H       1  ZINC000430767928    0.1000
     51 H51        -9.2865    0.2409   52.2196 H       1  ZINC000430767928    0.1000
@<TRIPOS>BOND
     1     1     2    2
     2     2    18   am
     3     2     3    1
     4     3     4    1
     5     3    15    1
     6     3     5    1
     7     5     6    1
     8     5    29    1
     9     5    30    1
    10     6     7    1
    11     6     8    1
    12     6    14    1
    13     8    13    1
    14     8     9    1
    15     8    31    1
    16     9    10    1
    17     9    32    1
    18     9    33    1
    19    10    11    1
    20    10    34    1
    21    10    35    1
    22    11    12    1
    23    11    36    1
    24    11    37    1
    25    12    13    1
    26    12    38    1
    27    12    39    1
    28    13    40    1
    29    13    41    1
    30    14    15    1
    31    14    42    1
    32    14    43    1
    33    15    16   am
    34    16    17    2
    35    16    18   am
    36    18    19    1
    37    19    20    1
    38    19    21    1
    39    19    26    1
    40    21    25    1
    41    21    22    2
    42    22    23    1
    43    22    44    1
    44    23    24    2
    45    23    45    1
    46    24    25    1
    47    24    46    1
    48    26    28    1
    49    26    27    1
    50    26    47    1
    51    27    28    1
    52    27    48    1
    53    27    49    1
    54    28    50    1
    55    28    51    1
@<TRIPOS>SUBSTRUCTURE
     1 ZINC000430767928        1 TEMP              0 ****  ****    0 ROOT


##########                                Name:    ZINC000011498449
##########                DOCK_Rotatable_Bonds:                   5
##########                         Heavy_Atoms:                  21
##########                    Molecular_Weight:             331.198
##########                DOCK_Rotatable_Bonds:                   5
##########                       Formal_Charge:         1.30385e-07
##########                     HBond_Acceptors:                   7
##########                        HBond_Donors:                   1
##########                         Heavy_Atoms:                  21
##########                          Grid_Score:          -30.012327
##########                     Grid_vdw_energy:          -29.449823
##########                      Grid_es_energy:           -0.562503
##########           Internal_energy_repulsive:            7.470926

@<TRIPOS>MOLECULE
ZINC000011498449
 37 38 1 0 0
SMALL
USER_CHARGES


@<TRIPOS>ATOM
      1 C1         -3.9609    1.2604   50.0172 C.3     1  ZINC000011498449   -0.1500
      2 C2         -5.0595    1.4304   51.0686 C.3     1  ZINC000011498449    0.0700
      3 H3         -4.6965    1.0791   52.0344 H       1  ZINC000011498449    0.0600
      4 C4         -6.2917    0.6161   50.6578 C.3     1  ZINC000011498449    0.0800
      5 N5         -7.3918    0.9423   51.5791 N.am    1  ZINC000011498449   -0.6100
      6 C6         -8.0929   -0.0304   52.1943 C.2     1  ZINC000011498449    0.5100
      7 O7         -7.8197   -1.1948   51.9931 O.2     1  ZINC000011498449   -0.5300
      8 C8         -9.2165    0.3287   53.1322 C.3     1  ZINC000011498449    0.1000
      9 N9         -9.8251   -0.8963   53.6569 N.am    1  ZINC000011498449   -0.7200
     10 C10       -11.0220   -0.8431   54.2742 C.2     1  ZINC000011498449    0.5600
     11 O11       -11.5973    0.2210   54.3944 O.2     1  ZINC000011498449   -0.5100
     12 C12       -11.6349   -2.0780   54.8047 C.ar    1  ZINC000011498449   -0.1300
     13 C13       -12.1948   -3.0136   53.9324 C.ar    1  ZINC000011498449   -0.0600
     14 C14       -12.7649   -4.1645   54.4335 C.ar    1  ZINC000011498449   -0.1100
     15 C15       -12.7834   -4.3947   55.7995 C.ar    1  ZINC000011498449    0.0000
     16 Cl16      -13.5030   -5.8470   56.4215 Cl      1  ZINC000011498449   -0.0400
     17 C17       -12.2302   -3.4717   56.6707 C.ar    1  ZINC000011498449   -0.1100
     18 C18       -11.6515   -2.3177   56.1816 C.ar    1  ZINC000011498449    0.0300
     19 Cl19      -10.9581   -1.1611   57.2747 Cl      1  ZINC000011498449   -0.0100
     20 C20        -7.7032    2.3620   51.8092 C.3     1  ZINC000011498449    0.0700
     21 C21        -6.4023    3.0911   52.1639 C.3     1  ZINC000011498449    0.0500
     22 O22        -5.4175    2.8109   51.1663 O.3     1  ZINC000011498449   -0.3700
     23 H23        -3.0858    1.8410   50.3090 H       1  ZINC000011498449    0.0700
     24 H24        -3.6898    0.2074   49.9421 H       1  ZINC000011498449    0.0800
     25 H25        -4.3246    1.6117   49.0516 H       1  ZINC000011498449    0.0700
     26 H26        -6.5783    0.8732   49.6381 H       1  ZINC000011498449    0.0800
     27 H27        -6.0653   -0.4484   50.7186 H       1  ZINC000011498449    0.1000
     28 H28        -8.8246    0.9222   53.9583 H       1  ZINC000011498449    0.1000
     29 H29        -9.9682    0.9064   52.5944 H       1  ZINC000011498449    0.1000
     30 H30        -9.3666   -1.7456   53.5600 H       1  ZINC000011498449    0.4100
     31 H31       -12.1816   -2.8357   52.8673 H       1  ZINC000011498449    0.1500
     32 H32       -13.1985   -4.8884   53.7594 H       1  ZINC000011498449    0.1500
     33 H33       -12.2478   -3.6568   57.7346 H       1  ZINC000011498449    0.1500
     34 H34        -8.1321    2.7949   50.9055 H       1  ZINC000011498449    0.0900
     35 H35        -8.4117    2.4536   52.6326 H       1  ZINC000011498449    0.1000
     36 H36        -6.5857    4.1648   52.2029 H       1  ZINC000011498449    0.1100
     37 H37        -6.0448    2.7465   53.1342 H       1  ZINC000011498449    0.0600
@<TRIPOS>BOND
     1     1     2    1
     2     1    23    1
     3     1    24    1
     4     1    25    1
     5     2     3    1
     6     2    22    1
     7     2     4    1
     8     4     5    1
     9     4    26    1
    10     4    27    1
    11     5     6   am
    12     5    20    1
    13     6     7    2
    14     6     8    1
    15     8     9    1
    16     8    28    1
    17     8    29    1
    18     9    10   am
    19     9    30    1
    20    10    11    2
    21    10    12    1
    22    12    18   ar
    23    12    13   ar
    24    13    14   ar
    25    13    31    1
    26    14    15   ar
    27    14    32    1
    28    15    16    1
    29    15    17   ar
    30    17    18   ar
    31    17    33    1
    32    18    19    1
    33    20    21    1
    34    20    34    1
    35    20    35    1
    36    21    22    1
    37    21    36    1
    38    21    37    1
@<TRIPOS>SUBSTRUCTURE
     1 ZINC000011498449        1 TEMP              0 ****  ****    0 ROOT


##########                                Name:    ZINC000854500114
##########                DOCK_Rotatable_Bonds:                   7
##########                         Heavy_Atoms:                  24
##########                    Molecular_Weight:             399.288
##########                DOCK_Rotatable_Bonds:                   7
##########                       Formal_Charge:          -0.0399992
##########                     HBond_Acceptors:                   7
##########                        HBond_Donors:                   2
##########                         Heavy_Atoms:                  24
##########                          Grid_Score:          -30.011093
##########                     Grid_vdw_energy:          -29.224937
##########                      Grid_es_energy:           -0.786155
##########           Internal_energy_repulsive:           76.802902

@<TRIPOS>MOLECULE
ZINC000854500114
 47 49 1 0 0
SMALL
USER_CHARGES


@<TRIPOS>ATOM
      1 O1         -5.6991    0.9352   49.5610 O.2     1  ZINC000854500114   -0.5800
      2 C2         -5.0309    1.1080   50.5612 C.2     1  ZINC000854500114    0.6600
      3 N3         -3.8188    1.6902   50.4696 N.am    1  ZINC000854500114   -0.7100
      4 C4         -3.3043    2.1093   49.1635 C.3     1  ZINC000854500114    0.1600
      5 C5         -2.3223    3.2865   49.3353 C.3     1  ZINC000854500114   -0.1400
      6 C6         -0.9267    2.6155   49.3674 C.3     1  ZINC000854500114   -0.1300
      7 C7         -1.0681    1.4826   48.3207 C.3     1  ZINC000854500114   -0.1300
      8 C8         -2.5068    0.9622   48.5184 C.3     1  ZINC000854500114   -0.1300
      9 O9         -5.5037    0.7229   51.7615 O.3     1  ZINC000854500114   -0.3600
     10 C10        -6.7631    0.0004   51.7729 C.3     1  ZINC000854500114    0.1000
     11 C11        -7.9188    0.9924   51.9191 C.3     1  ZINC000854500114    0.1500
     12 H12        -7.9976    1.5974   51.0159 H       1  ZINC000854500114    0.0900
     13 C13        -7.6657    1.9017   53.1258 C.3     1  ZINC000854500114   -0.1300
     14 C14        -8.8867    2.7966   53.3501 C.3     1  ZINC000854500114   -0.1200
     15 C15       -10.1104    1.9275   53.6486 C.3     1  ZINC000854500114   -0.1400
     16 C16       -10.3913    1.0185   52.4478 C.3     1  ZINC000854500114    0.0900
     17 N17        -9.1739    0.2586   52.1314 N.am    1  ZINC000854500114   -0.6100
     18 C18        -9.2073   -1.0859   52.0427 C.2     1  ZINC000854500114    0.5900
     19 O19        -8.1928   -1.7034   51.7802 O.2     1  ZINC000854500114   -0.4900
     20 C20       -10.4711   -1.8067   52.2637 C.2     1  ZINC000854500114   -0.0300
     21 C21       -10.8310   -2.5260   53.3900 C.2     1  ZINC000854500114   -0.1200
     22 C22       -12.1113   -3.0176   53.1215 C.2     1  ZINC000854500114    0.0200
     23 Br23      -13.1595   -4.0851   54.2781 Br      1  ZINC000854500114    0.0400
     24 N24       -12.4561   -2.6076   51.9270 N.2     1  ZINC000854500114   -0.2400
     25 N25       -11.5262   -1.8950   51.4006 N.pl3   1  ZINC000854500114   -0.3700
     26 H26        -3.2871    1.8318   51.2684 H       1  ZINC000854500114    0.4000
     27 H27        -4.1292    2.4019   48.5139 H       1  ZINC000854500114    0.0900
     28 H28        -2.3968    3.9718   48.4909 H       1  ZINC000854500114    0.0800
     29 H29        -2.5152    3.8107   50.2714 H       1  ZINC000854500114    0.0700
     30 H30        -0.1516    3.3218   49.0699 H       1  ZINC000854500114    0.0700
     31 H31        -0.7181    2.2050   50.3553 H       1  ZINC000854500114    0.0700
     32 H32        -0.9400    1.8765   47.3125 H       1  ZINC000854500114    0.0700
     33 H33        -0.3455    0.6902   48.5165 H       1  ZINC000854500114    0.0700
     34 H34        -2.5026    0.0938   49.1771 H       1  ZINC000854500114    0.0700
     35 H35        -2.9442    0.6988   47.5554 H       1  ZINC000854500114    0.0800
     36 H36        -6.8739   -0.5516   50.8397 H       1  ZINC000854500114    0.1000
     37 H37        -6.7745   -0.6966   52.6109 H       1  ZINC000854500114    0.0700
     38 H38        -7.4947    1.2908   54.0121 H       1  ZINC000854500114    0.0800
     39 H39        -6.7897    2.5221   52.9363 H       1  ZINC000854500114    0.0900
     40 H40        -8.6994    3.4618   54.1929 H       1  ZINC000854500114    0.0800
     41 H41        -9.0720    3.3893   52.4543 H       1  ZINC000854500114    0.0700
     42 H42        -9.9164    1.3164   54.5299 H       1  ZINC000854500114    0.0700
     43 H43       -10.9746    2.5663   53.8313 H       1  ZINC000854500114    0.0800
     44 H44       -11.1994    0.3291   52.6926 H       1  ZINC000854500114    0.0800
     45 H45       -10.6742    1.6259   51.5881 H       1  ZINC000854500114    0.0800
     46 H46       -10.2467   -2.6756   54.2858 H       1  ZINC000854500114    0.1700
     47 H47       -11.5646   -1.4868   50.5215 H       1  ZINC000854500114    0.4500
@<TRIPOS>BOND
     1     1     2    2
     2     2     3   am
     3     2     9    1
     4     3     4    1
     5     3    26    1
     6     4     8    1
     7     4     5    1
     8     4    27    1
     9     5     6    1
    10     5    28    1
    11     5    29    1
    12     6     7    1
    13     6    30    1
    14     6    31    1
    15     7     8    1
    16     7    32    1
    17     7    33    1
    18     8    34    1
    19     8    35    1
    20     9    10    1
    21    10    11    1
    22    10    36    1
    23    10    37    1
    24    11    12    1
    25    11    17    1
    26    11    13    1
    27    13    14    1
    28    13    38    1
    29    13    39    1
    30    14    15    1
    31    14    40    1
    32    14    41    1
    33    15    16    1
    34    15    42    1
    35    15    43    1
    36    16    17    1
    37    16    44    1
    38    16    45    1
    39    17    18   am
    40    18    19    2
    41    18    20    1
    42    20    25    1
    43    20    21    2
    44    21    22    1
    45    21    46    1
    46    22    23    1
    47    22    24    2
    48    24    25    1
    49    25    47    1
@<TRIPOS>SUBSTRUCTURE
     1 ZINC000854500114        1 TEMP              0 ****  ****    0 ROOT


##########                                Name:    ZINC000763800048
##########                DOCK_Rotatable_Bonds:                   8
##########                         Heavy_Atoms:                  23
##########                    Molecular_Weight:             329.783
##########                DOCK_Rotatable_Bonds:                   8
##########                       Formal_Charge:           0.0199994
##########                     HBond_Acceptors:                   5
##########                        HBond_Donors:                   1
##########                         Heavy_Atoms:                  23
##########                          Grid_Score:          -30.001642
##########                     Grid_vdw_energy:          -29.457367
##########                      Grid_es_energy:           -0.544276
##########           Internal_energy_repulsive:            8.949592

@<TRIPOS>MOLECULE
ZINC000763800048
 39 40 1 0 0
SMALL
USER_CHARGES


@<TRIPOS>ATOM
      1 C1         -7.3262    2.4965   57.4655 C.3     1  ZINC000763800048    0.0400
      2 O2         -7.4096    2.3900   56.0198 O.3     1  ZINC000763800048   -0.3600
      3 C3         -8.4748    1.7467   55.5166 C.2     1  ZINC000763800048    0.4600
      4 O4         -9.1254    1.0121   56.2215 O.2     1  ZINC000763800048   -0.4900
      5 C5         -8.8590    1.9406   54.0724 C.3     1  ZINC000763800048   -0.0700
      6 C6         -9.1286    0.5995   53.4399 C.ar    1  ZINC000763800048   -0.0600
      7 C7         -8.2692    0.1054   52.4760 C.ar    1  ZINC000763800048   -0.1200
      8 C8         -8.5130   -1.1249   51.8931 C.ar    1  ZINC000763800048   -0.1000
      9 C9         -9.6158   -1.8642   52.2727 C.ar    1  ZINC000763800048   -0.1100
     10 C10       -10.4809   -1.3708   53.2412 C.ar    1  ZINC000763800048    0.1500
     11 N11       -11.5984   -2.1168   53.6280 N.am    1  ZINC000763800048   -0.6700
     12 C12       -11.4369   -3.2695   54.3074 C.2     1  ZINC000763800048    0.5500
     13 O13       -10.3183   -3.6611   54.5843 O.2     1  ZINC000763800048   -0.5200
     14 C14       -12.6066   -4.0503   54.7122 C.2     1  ZINC000763800048   -0.2100
     15 C15       -12.8444   -4.2802   56.0197 C.2     1  ZINC000763800048   -0.0100
     16 C16       -11.9267   -3.7474   57.0392 C.ar    1  ZINC000763800048   -0.0800
     17 C17       -11.0865   -4.6116   57.7488 C.ar    1  ZINC000763800048   -0.0900
     18 C18       -10.2295   -4.1055   58.7023 C.ar    1  ZINC000763800048   -0.1100
     19 C19       -10.1995   -2.7442   58.9590 C.ar    1  ZINC000763800048   -0.0200
     20 Cl20       -9.1174   -2.1158   60.1622 Cl      1  ZINC000763800048   -0.0600
     21 C21       -11.0287   -1.8822   58.2598 C.ar    1  ZINC000763800048   -0.1100
     22 C22       -11.8865   -2.3737   57.2993 C.ar    1  ZINC000763800048   -0.0800
     23 C23       -10.2306   -0.1372   53.8280 C.ar    1  ZINC000763800048   -0.1300
     24 H24        -6.4202    3.0376   57.7384 H       1  ZINC000763800048    0.1000
     25 H25        -8.1971    3.0337   57.8411 H       1  ZINC000763800048    0.0600
     26 H26        -7.2987    1.4983   57.9024 H       1  ZINC000763800048    0.0600
     27 H27        -9.7565    2.5564   54.0147 H       1  ZINC000763800048    0.1200
     28 H28        -8.0445    2.4348   53.5429 H       1  ZINC000763800048    0.1200
     29 H29        -7.4061    0.6815   52.1773 H       1  ZINC000763800048    0.1200
     30 H30        -7.8403   -1.5078   51.1399 H       1  ZINC000763800048    0.1300
     31 H31        -9.8057   -2.8247   51.8169 H       1  ZINC000763800048    0.1400
     32 H32       -12.4899   -1.8048   53.4072 H       1  ZINC000763800048    0.4100
     33 H33       -13.2794   -4.4425   53.9639 H       1  ZINC000763800048    0.1300
     34 H34       -13.7083   -4.8553   56.3185 H       1  ZINC000763800048    0.1400
     35 H35       -11.1093   -5.6730   57.5502 H       1  ZINC000763800048    0.1400
     36 H36        -9.5801   -4.7716   59.2509 H       1  ZINC000763800048    0.1400
     37 H37       -11.0000   -0.8223   58.4651 H       1  ZINC000763800048    0.1400
     38 H38       -12.5321   -1.7005   56.7548 H       1  ZINC000763800048    0.1400
     39 H39       -10.9010    0.2490   54.5816 H       1  ZINC000763800048    0.1300
@<TRIPOS>BOND
     1     1     2    1
     2     1    24    1
     3     1    25    1
     4     1    26    1
     5     2     3    1
     6     3     4    2
     7     3     5    1
     8     5     6    1
     9     5    27    1
    10     5    28    1
    11     6    23   ar
    12     6     7   ar
    13     7     8   ar
    14     7    29    1
    15     8     9   ar
    16     8    30    1
    17     9    10   ar
    18     9    31    1
    19    10    11    1
    20    10    23   ar
    21    11    12   am
    22    11    32    1
    23    12    13    2
    24    12    14    1
    25    14    15    2
    26    14    33    1
    27    15    16    1
    28    15    34    1
    29    16    22   ar
    30    16    17   ar
    31    17    18   ar
    32    17    35    1
    33    18    19   ar
    34    18    36    1
    35    19    20    1
    36    19    21   ar
    37    21    22   ar
    38    21    37    1
    39    22    38    1
    40    23    39    1
@<TRIPOS>SUBSTRUCTURE
     1 ZINC000763800048        1 TEMP              0 ****  ****    0 ROOT


##########                                Name:    ZINC000077537368
##########                DOCK_Rotatable_Bonds:                   5
##########                         Heavy_Atoms:                  27
##########                    Molecular_Weight:             365.478
##########                DOCK_Rotatable_Bonds:                   5
##########                       Formal_Charge:          -0.0400007
##########                     HBond_Acceptors:                   6
##########                        HBond_Donors:                   0
##########                         Heavy_Atoms:                  27
##########                          Grid_Score:          -29.956779
##########                     Grid_vdw_energy:          -29.814369
##########                      Grid_es_energy:           -0.142411
##########           Internal_energy_repulsive:           20.388296

@<TRIPOS>MOLECULE
ZINC000077537368
 54 56 1 0 0
SMALL
USER_CHARGES


@<TRIPOS>ATOM
      1 C1        -10.1129    2.3707   52.3543 C.3     1  ZINC000077537368    0.0800
      2 N2         -9.7167    1.9195   53.6906 N.pl3   1  ZINC000077537368   -0.2600
      3 N3         -9.5863    2.6776   54.7193 N.2     1  ZINC000077537368   -0.2700
      4 C4         -9.2219    1.9841   55.7676 C.2     1  ZINC000077537368    0.0400
      5 C5         -8.9725    2.5303   57.1498 C.3     1  ZINC000077537368    0.0200
      6 C6         -9.2907    1.4532   58.1889 C.3     1  ZINC000077537368   -0.1400
      7 C7         -7.5051    2.9444   57.2775 C.3     1  ZINC000077537368   -0.1400
      8 C8         -9.8684    3.7478   57.3865 C.3     1  ZINC000077537368   -0.1400
      9 C9         -9.1057    0.6479   55.3781 C.2     1  ZINC000077537368   -0.2000
     10 C10        -9.4354    0.6277   54.0341 C.2     1  ZINC000077537368   -0.0400
     11 C11        -9.4677   -0.5483   53.1500 C.2     1  ZINC000077537368    0.5900
     12 O12        -8.4615   -0.8936   52.5603 O.2     1  ZINC000077537368   -0.5400
     13 N13       -10.6122   -1.2427   52.9937 N.am    1  ZINC000077537368   -0.6000
     14 C14       -10.6649   -2.4245   52.1198 C.3     1  ZINC000077537368    0.0800
     15 C15       -11.2832   -3.5848   52.9069 C.3     1  ZINC000077537368    0.0400
     16 N16       -12.5772   -3.1628   53.4597 N.3     1  ZINC000077537368   -0.5300
     17 C17       -13.2813   -4.2956   54.0750 C.3     1  ZINC000077537368    0.0900
     18 C18       -13.5296   -4.0013   55.5320 C.ar    1  ZINC000077537368   -0.0500
     19 C19       -14.7792   -3.5740   55.9451 C.ar    1  ZINC000077537368   -0.1200
     20 C20       -15.0133   -3.3025   57.2771 C.ar    1  ZINC000077537368   -0.0700
     21 C21       -13.9858   -3.4601   58.2095 C.ar    1  ZINC000077537368   -0.0300
     22 C22       -14.2218   -3.1806   59.5939 C.1     1  ZINC000077537368    0.2500
     23 N23       -14.4090   -2.9588   60.6922 N.1     1  ZINC000077537368   -0.4100
     24 C24       -12.7274   -3.8922   57.7858 C.ar    1  ZINC000077537368   -0.0700
     25 C25       -12.5087   -4.1652   56.4514 C.ar    1  ZINC000077537368   -0.1000
     26 C26       -12.4136   -2.0613   54.4178 C.3     1  ZINC000077537368    0.0400
     27 C27       -11.8401   -0.8422   53.6974 C.3     1  ZINC000077537368    0.1200
     28 H28       -11.1873    2.2362   52.2291 H       1  ZINC000077537368    0.0800
     29 H29        -9.8628    3.4252   52.2379 H       1  ZINC000077537368    0.1000
     30 H30        -9.5835    1.7864   51.6018 H       1  ZINC000077537368    0.1100
     31 H31        -8.6524    0.5859   58.0202 H       1  ZINC000077537368    0.0600
     32 H32        -9.1103    1.8483   59.1886 H       1  ZINC000077537368    0.0600
     33 H33       -10.3361    1.1583   58.0979 H       1  ZINC000077537368    0.0600
     34 H34        -7.2784    3.7117   56.5373 H       1  ZINC000077537368    0.0600
     35 H35        -7.3247    3.3395   58.2773 H       1  ZINC000077537368    0.0600
     36 H36        -6.8669    2.0771   57.1088 H       1  ZINC000077537368    0.0600
     37 H37       -10.9138    3.4528   57.2955 H       1  ZINC000077537368    0.0600
     38 H38        -9.6880    4.1428   58.3863 H       1  ZINC000077537368    0.0600
     39 H39        -9.6417    4.5151   56.6463 H       1  ZINC000077537368    0.0600
     40 H40        -8.8223   -0.1918   55.9954 H       1  ZINC000077537368    0.1700
     41 H41       -11.2789   -2.2066   51.2459 H       1  ZINC000077537368    0.0800
     42 H42        -9.6564   -2.6921   51.8047 H       1  ZINC000077537368    0.1200
     43 H43       -11.4316   -4.4364   52.2431 H       1  ZINC000077537368    0.0900
     44 H44       -10.6156   -3.8691   53.7203 H       1  ZINC000077537368    0.0400
     45 H45       -14.2338   -4.4501   53.5682 H       1  ZINC000077537368    0.0900
     46 H46       -12.6717   -5.1947   53.9848 H       1  ZINC000077537368    0.0500
     47 H47       -15.5730   -3.4524   55.2228 H       1  ZINC000077537368    0.1300
     48 H48       -15.9888   -2.9683   57.5981 H       1  ZINC000077537368    0.1300
     49 H49       -11.9285   -4.0162   58.5017 H       1  ZINC000077537368    0.1300
     50 H50       -11.5360   -4.4997   56.1223 H       1  ZINC000077537368    0.1400
     51 H51       -13.3818   -1.8081   54.8496 H       1  ZINC000077537368    0.1000
     52 H52       -11.7303   -2.3669   55.2101 H       1  ZINC000077537368    0.0400
     53 H53       -11.6102   -0.0625   54.4234 H       1  ZINC000077537368    0.1000
     54 H54       -12.5651   -0.4701   52.9734 H       1  ZINC000077537368    0.0800
@<TRIPOS>BOND
     1     1     2    1
     2     1    28    1
     3     1    29    1
     4     1    30    1
     5     2    10    1
     6     2     3    1
     7     3     4    2
     8     4     5    1
     9     4     9    1
    10     5     6    1
    11     5     7    1
    12     5     8    1
    13     6    31    1
    14     6    32    1
    15     6    33    1
    16     7    34    1
    17     7    35    1
    18     7    36    1
    19     8    37    1
    20     8    38    1
    21     8    39    1
    22     9    10    2
    23     9    40    1
    24    10    11    1
    25    11    12    2
    26    11    13   am
    27    13    27    1
    28    13    14    1
    29    14    15    1
    30    14    41    1
    31    14    42    1
    32    15    16    1
    33    15    43    1
    34    15    44    1
    35    16    17    1
    36    16    26    1
    37    17    18    1
    38    17    45    1
    39    17    46    1
    40    18    25   ar
    41    18    19   ar
    42    19    20   ar
    43    19    47    1
    44    20    21   ar
    45    20    48    1
    46    21    22    1
    47    21    24   ar
    48    22    23    3
    49    24    25   ar
    50    24    49    1
    51    25    50    1
    52    26    27    1
    53    26    51    1
    54    26    52    1
    55    27    53    1
    56    27    54    1
@<TRIPOS>SUBSTRUCTURE
     1 ZINC000077537368        1 TEMP              0 ****  ****    0 ROOT


##########                                Name:    ZINC000444542200
##########                DOCK_Rotatable_Bonds:                   8
##########                         Heavy_Atoms:                  28
##########                    Molecular_Weight:             404.337
##########                DOCK_Rotatable_Bonds:                   8
##########                       Formal_Charge:           0.0200001
##########                     HBond_Acceptors:                  10
##########                        HBond_Donors:                   1
##########                         Heavy_Atoms:                  28
##########                          Grid_Score:          -29.912128
##########                     Grid_vdw_energy:          -29.492634
##########                      Grid_es_energy:           -0.419495
##########           Internal_energy_repulsive:           22.224924

@<TRIPOS>MOLECULE
ZINC000444542200
 45 46 1 0 0
SMALL
USER_CHARGES


@<TRIPOS>ATOM
      1 C1         -8.2383    3.1741   53.1326 C.3     1  ZINC000444542200    0.0300
      2 O2         -9.4313    2.5717   53.6387 O.3     1  ZINC000444542200   -0.3100
      3 C3         -9.6555    1.2732   53.3064 C.ar    1  ZINC000444542200    0.1800
      4 C4        -10.7747    0.6162   53.7946 C.ar    1  ZINC000444542200   -0.1700
      5 C5        -11.0038   -0.7100   53.4548 C.ar    1  ZINC000444542200    0.2300
      6 N6        -12.1335   -1.3734   53.9467 N.am    1  ZINC000444542200   -0.5800
      7 C7        -13.4656   -1.0168   53.4523 C.3     1  ZINC000444542200    0.0700
      8 C8        -11.9959   -2.3404   54.8753 C.2     1  ZINC000444542200    0.7100
      9 O9        -10.8902   -2.6366   55.2855 O.2     1  ZINC000444542200   -0.5500
     10 N10       -13.0839   -2.9794   55.3491 N.am    1  ZINC000444542200   -0.7300
     11 C11       -12.9344   -4.0294   56.3598 C.3     1  ZINC000444542200    0.1700
     12 H12       -12.3547   -4.8537   55.9445 H       1  ZINC000444542200    0.1500
     13 C13       -12.2211   -3.4700   57.5636 C.ar    1  ZINC000444542200   -0.1300
     14 C14       -12.6628   -2.2965   58.1451 C.ar    1  ZINC000444542200   -0.0800
     15 C15       -12.0093   -1.7819   59.2496 C.ar    1  ZINC000444542200   -0.0900
     16 C16       -10.9131   -2.4400   59.7746 C.ar    1  ZINC000444542200   -0.1100
     17 C17       -10.4683   -3.6153   59.1945 C.ar    1  ZINC000444542200    0.0800
     18 F18        -9.3969   -4.2591   59.7071 F       1  ZINC000444542200   -0.1200
     19 C19       -11.1271   -4.1344   58.0905 C.ar    1  ZINC000444542200    0.1000
     20 F20       -10.6948   -5.2815   57.5226 F       1  ZINC000444542200   -0.1100
     21 C21       -14.3165   -4.5368   56.7761 C.3     1  ZINC000444542200    0.4400
     22 F22       -14.6801   -5.6178   55.9658 F       1  ZINC000444542200   -0.1600
     23 F23       -14.2791   -4.9479   58.1129 F       1  ZINC000444542200   -0.1700
     24 F24       -15.2541   -3.5088   56.6305 F       1  ZINC000444542200   -0.1800
     25 C25       -10.1123   -1.3775   52.6264 C.ar    1  ZINC000444542200   -0.1900
     26 C26        -8.9935   -0.7194   52.1390 C.ar    1  ZINC000444542200    0.1800
     27 O27        -8.1206   -1.3729   51.3280 O.3     1  ZINC000444542200   -0.3100
     28 C28        -6.9544   -0.6558   50.9184 C.3     1  ZINC000444542200    0.0300
     29 C29        -8.7679    0.6072   52.4746 C.ar    1  ZINC000444542200   -0.2900
     30 H30        -7.3707    2.6244   53.4976 H       1  ZINC000444542200    0.0600
     31 H31        -8.2525    3.1489   52.0430 H       1  ZINC000444542200    0.0600
     32 H32        -8.1818    4.2086   53.4714 H       1  ZINC000444542200    0.1000
     33 H33       -11.4678    1.1362   54.4393 H       1  ZINC000444542200    0.1300
     34 H34       -13.7076   -1.6309   52.5849 H       1  ZINC000444542200    0.0700
     35 H35       -14.2025   -1.1894   54.2368 H       1  ZINC000444542200    0.0700
     36 H36       -13.4778    0.0353   53.1675 H       1  ZINC000444542200    0.0900
     37 H37       -13.9658   -2.7441   55.0210 H       1  ZINC000444542200    0.4100
     38 H38       -13.5189   -1.7807   57.7362 H       1  ZINC000444542200    0.1400
     39 H39       -12.3557   -0.8647   59.7024 H       1  ZINC000444542200    0.1500
     40 H40       -10.4033   -2.0368   60.6371 H       1  ZINC000444542200    0.1500
     41 H41       -10.2898   -2.4095   52.3620 H       1  ZINC000444542200    0.1400
     42 H42        -6.3779   -0.3673   51.7974 H       1  ZINC000444542200    0.0600
     43 H43        -6.3442   -1.2909   50.2761 H       1  ZINC000444542200    0.1000
     44 H44        -7.2514    0.2378   50.3694 H       1  ZINC000444542200    0.0600
     45 H45        -7.8963    1.1194   52.0947 H       1  ZINC000444542200    0.1400
@<TRIPOS>BOND
     1     1     2    1
     2     1    30    1
     3     1    31    1
     4     1    32    1
     5     2     3    1
     6     3    29   ar
     7     3     4   ar
     8     4     5   ar
     9     4    33    1
    10     5     6    1
    11     5    25   ar
    12     6     7    1
    13     6     8   am
    14     7    34    1
    15     7    35    1
    16     7    36    1
    17     8     9    2
    18     8    10   am
    19    10    11    1
    20    10    37    1
    21    11    12    1
    22    11    13    1
    23    11    21    1
    24    13    19   ar
    25    13    14   ar
    26    14    15   ar
    27    14    38    1
    28    15    16   ar
    29    15    39    1
    30    16    17   ar
    31    16    40    1
    32    17    18    1
    33    17    19   ar
    34    19    20    1
    35    21    22    1
    36    21    23    1
    37    21    24    1
    38    25    26   ar
    39    25    41    1
    40    26    27    1
    41    26    29   ar
    42    27    28    1
    43    28    42    1
    44    28    43    1
    45    28    44    1
    46    29    45    1
@<TRIPOS>SUBSTRUCTURE
     1 ZINC000444542200        1 TEMP              0 ****  ****    0 ROOT


##########                                Name:    ZINC000517001504
##########                DOCK_Rotatable_Bonds:                   5
##########                         Heavy_Atoms:                  29
##########                    Molecular_Weight:             403.401
##########                DOCK_Rotatable_Bonds:                   5
##########                       Formal_Charge:          -0.0200002
##########                     HBond_Acceptors:                   7
##########                        HBond_Donors:                   0
##########                         Heavy_Atoms:                  29
##########                          Grid_Score:          -29.901279
##########                     Grid_vdw_energy:          -29.752789
##########                      Grid_es_energy:           -0.148491
##########           Internal_energy_repulsive:           34.927029

@<TRIPOS>MOLECULE
ZINC000517001504
 49 52 1 0 0
SMALL
USER_CHARGES


@<TRIPOS>ATOM
      1 O1        -10.0556   -3.3044   59.4082 O.2     1  ZINC000517001504   -0.5200
      2 C2        -10.7257   -2.3949   58.9669 C.2     1  ZINC000517001504    0.5400
      3 N3        -11.0028   -1.3256   59.7393 N.am    1  ZINC000517001504   -0.6100
      4 C4        -11.8087   -0.2074   59.2239 C.3     1  ZINC000517001504    0.0600
      5 C5        -11.0571    1.0990   59.5031 C.3     1  ZINC000517001504    0.0500
      6 O6        -10.7072    1.1541   60.8881 O.3     1  ZINC000517001504   -0.3700
      7 C7         -9.8207    0.1147   61.3095 C.3     1  ZINC000517001504    0.1200
      8 H8         -8.9108    0.1470   60.7101 H       1  ZINC000517001504    0.0800
      9 C9         -9.4730    0.3083   62.7630 C.ar    1  ZINC000517001504   -0.0600
     10 C10        -8.8833   -0.7192   63.4755 C.ar    1  ZINC000517001504   -0.0900
     11 C11        -8.5644   -0.5416   64.8087 C.ar    1  ZINC000517001504   -0.0700
     12 C12        -8.8348    0.6636   65.4295 C.ar    1  ZINC000517001504   -0.1800
     13 C13        -8.4877    0.8570   66.8832 C.3     1  ZINC000517001504    0.5100
     14 F14        -9.3295    1.8266   67.4385 F       1  ZINC000517001504   -0.1800
     15 F15        -8.6538   -0.3519   67.5672 F       1  ZINC000517001504   -0.1800
     16 F16        -7.1575    1.2762   66.9931 F       1  ZINC000517001504   -0.1800
     17 C17        -9.4233    1.6915   64.7168 C.ar    1  ZINC000517001504   -0.0700
     18 C18        -9.7386    1.5152   63.3824 C.ar    1  ZINC000517001504   -0.1000
     19 C19       -10.5137   -1.2448   61.1247 C.3     1  ZINC000517001504    0.0900
     20 C20       -11.2433   -2.4576   57.5531 C.3     1  ZINC000517001504   -0.0600
     21 C21       -10.6222   -1.4190   56.6550 C.ar    1  ZINC000517001504   -0.0700
     22 C22       -11.1116   -1.2292   55.3762 C.ar    1  ZINC000517001504   -0.1200
     23 C23       -10.5418   -0.2764   54.5525 C.ar    1  ZINC000517001504   -0.1100
     24 C24        -9.4830    0.4869   55.0077 C.ar    1  ZINC000517001504   -0.1100
     25 C25        -8.9942    0.2976   56.2868 C.ar    1  ZINC000517001504   -0.1100
     26 C26        -9.5667   -0.6521   57.1120 C.ar    1  ZINC000517001504   -0.1000
     27 C27       -11.2384   -3.8754   56.9561 C.3     1  ZINC000517001504   -0.1600
     28 C28       -12.6376   -4.0246   57.5197 C.2     1  ZINC000517001504    0.3600
     29 O29       -13.3371   -4.9457   57.8666 O.2     1  ZINC000517001504   -0.4100
     30 C30       -12.7778   -2.5165   57.4594 C.3     1  ZINC000517001504   -0.1900
     31 H31       -11.9550   -0.3247   58.1501 H       1  ZINC000517001504    0.1000
     32 H32       -12.7756   -0.1894   59.7268 H       1  ZINC000517001504    0.0800
     33 H33       -10.1518    1.1349   58.8972 H       1  ZINC000517001504    0.0600
     34 H34       -11.6959    1.9467   59.2549 H       1  ZINC000517001504    0.1100
     35 H35        -8.6721   -1.6607   62.9904 H       1  ZINC000517001504    0.1400
     36 H36        -8.1044   -1.3446   65.3655 H       1  ZINC000517001504    0.1400
     37 H37        -9.6342    2.6331   65.2017 H       1  ZINC000517001504    0.1400
     38 H38       -10.1984    2.3184   62.8256 H       1  ZINC000517001504    0.1400
     39 H39       -11.3487   -1.3287   61.8201 H       1  ZINC000517001504    0.0800
     40 H40        -9.8004   -2.0483   61.3081 H       1  ZINC000517001504    0.1100
     41 H41       -11.9388   -1.8255   55.0205 H       1  ZINC000517001504    0.1300
     42 H42       -10.9236   -0.1286   53.5530 H       1  ZINC000517001504    0.1300
     43 H43        -9.0374    1.2307   54.3639 H       1  ZINC000517001504    0.1300
     44 H44        -8.1668    0.8937   56.6424 H       1  ZINC000517001504    0.1300
     45 H45        -9.1849   -0.7999   58.1114 H       1  ZINC000517001504    0.1200
     46 H46       -11.2014   -3.8914   55.8668 H       1  ZINC000517001504    0.1300
     47 H47       -10.5081   -4.5412   57.4160 H       1  ZINC000517001504    0.1100
     48 H48       -13.2857   -2.0894   58.3242 H       1  ZINC000517001504    0.1000
     49 H49       -13.1727   -2.1513   56.5114 H       1  ZINC000517001504    0.1400
@<TRIPOS>BOND
     1     1     2    2
     2     2     3   am
     3     2    20    1
     4     3    19    1
     5     3     4    1
     6     4     5    1
     7     4    31    1
     8     4    32    1
     9     5     6    1
    10     5    33    1
    11     5    34    1
    12     6     7    1
    13     7     8    1
    14     7     9    1
    15     7    19    1
    16     9    18   ar
    17     9    10   ar
    18    10    11   ar
    19    10    35    1
    20    11    12   ar
    21    11    36    1
    22    12    13    1
    23    12    17   ar
    24    13    14    1
    25    13    15    1
    26    13    16    1
    27    17    18   ar
    28    17    37    1
    29    18    38    1
    30    19    39    1
    31    19    40    1
    32    20    30    1
    33    20    21    1
    34    20    27    1
    35    21    26   ar
    36    21    22   ar
    37    22    23   ar
    38    22    41    1
    39    23    24   ar
    40    23    42    1
    41    24    25   ar
    42    24    43    1
    43    25    26   ar
    44    25    44    1
    45    26    45    1
    46    27    28    1
    47    27    46    1
    48    27    47    1
    49    28    29    2
    50    28    30    1
    51    30    48    1
    52    30    49    1
@<TRIPOS>SUBSTRUCTURE
     1 ZINC000517001504        1 TEMP              0 ****  ****    0 ROOT


##########                                Name:    ZINC000516003207
##########                DOCK_Rotatable_Bonds:                   5
##########                         Heavy_Atoms:                  24
##########                    Molecular_Weight:             342.462
##########                DOCK_Rotatable_Bonds:                   5
##########                       Formal_Charge:          -0.0200001
##########                     HBond_Acceptors:                   5
##########                        HBond_Donors:                   1
##########                         Heavy_Atoms:                  24
##########                          Grid_Score:          -29.875313
##########                     Grid_vdw_energy:          -28.982925
##########                      Grid_es_energy:           -0.892387
##########           Internal_energy_repulsive:            8.530237

@<TRIPOS>MOLECULE
ZINC000516003207
 46 49 1 0 0
SMALL
USER_CHARGES


@<TRIPOS>ATOM
      1 C1         -9.4070    0.6762   63.7871 C.3     1  ZINC000516003207    0.0300
      2 O2        -10.1269   -0.2490   62.9699 O.3     1  ZINC000516003207   -0.3600
      3 C3         -9.7642   -0.2087   61.5884 C.3     1  ZINC000516003207    0.0900
      4 H4         -8.9796    0.5178   61.3771 H       1  ZINC000516003207    0.0800
      5 C5         -9.5014   -1.5972   60.9778 C.3     1  ZINC000516003207   -0.1700
      6 C6        -10.9981   -1.6429   60.6204 C.3     1  ZINC000516003207    0.1500
      7 H7        -11.6216   -2.0767   61.4020 H       1  ZINC000516003207    0.1200
      8 N8        -11.2694   -2.2077   59.2960 N.am    1  ZINC000516003207   -0.7200
      9 C9        -12.4817   -2.7287   59.0212 C.2     1  ZINC000516003207    0.5600
     10 O10       -13.3503   -2.7286   59.8715 O.2     1  ZINC000516003207   -0.5300
     11 C11       -12.7550   -3.3004   57.6852 C.ar    1  ZINC000516003207   -0.1400
     12 C12       -13.5823   -4.4179   57.5581 C.ar    1  ZINC000516003207   -0.0800
     13 C13       -13.8375   -4.9523   56.3109 C.ar    1  ZINC000516003207   -0.1200
     14 C14       -13.2774   -4.3859   55.1828 C.ar    1  ZINC000516003207   -0.0800
     15 C15       -12.4495   -3.2691   55.2964 C.ar    1  ZINC000516003207   -0.0300
     16 C16       -11.8492   -2.6626   54.0828 C.2     1  ZINC000516003207    0.1100
     17 C17       -12.1484   -3.0719   52.8334 C.2     1  ZINC000516003207   -0.2600
     18 S18       -11.2190   -2.0887   51.7052 S.3     1  ZINC000516003207    0.1400
     19 C19       -10.5228   -1.2286   53.0078 C.2     1  ZINC000516003207    0.0600
     20 C20        -9.5234   -0.1100   52.8624 C.3     1  ZINC000516003207   -0.0800
     21 N21       -10.9759   -1.6671   54.1309 N.2     1  ZINC000516003207   -0.4700
     22 C22       -12.1920   -2.7217   56.5489 C.ar    1  ZINC000516003207   -0.0300
     23 C23       -10.9614   -0.1114   60.6422 C.3     1  ZINC000516003207   -0.1100
     24 C24       -12.2005    0.7040   61.0137 C.3     1  ZINC000516003207   -0.1200
     25 C25       -11.6447    1.8059   60.0935 C.3     1  ZINC000516003207   -0.1400
     26 C26       -10.8832    0.6962   59.3461 C.3     1  ZINC000516003207   -0.1200
     27 H27        -9.5915    1.6914   63.4357 H       1  ZINC000516003207    0.0400
     28 H28        -9.7400    0.5835   64.8209 H       1  ZINC000516003207    0.0900
     29 H29        -8.3403    0.4595   63.7281 H       1  ZINC000516003207    0.0400
     30 H30        -8.8457   -1.5738   60.1073 H       1  ZINC000516003207    0.0900
     31 H31        -9.2051   -2.3471   61.7112 H       1  ZINC000516003207    0.0800
     32 H32       -10.5767   -2.2067   58.6171 H       1  ZINC000516003207    0.4000
     33 H33       -14.0232   -4.8652   58.4367 H       1  ZINC000516003207    0.1300
     34 H34       -14.4775   -5.8173   56.2172 H       1  ZINC000516003207    0.1400
     35 H35       -13.4805   -4.8089   54.2100 H       1  ZINC000516003207    0.1300
     36 H36       -12.8357   -3.8625   52.5711 H       1  ZINC000516003207    0.1800
     37 H37        -9.3188    0.0592   51.8053 H       1  ZINC000516003207    0.0800
     38 H38        -9.9297    0.7999   53.3041 H       1  ZINC000516003207    0.0900
     39 H39        -8.5989   -0.3801   53.3727 H       1  ZINC000516003207    0.0900
     40 H40       -11.5516   -1.8570   56.6416 H       1  ZINC000516003207    0.1500
     41 H41       -13.1341    0.2673   60.6588 H       1  ZINC000516003207    0.0800
     42 H42       -12.2374    0.9893   62.0651 H       1  ZINC000516003207    0.0800
     43 H43       -12.4081    2.2946   59.4882 H       1  ZINC000516003207    0.0700
     44 H44       -10.9925    2.5136   60.6054 H       1  ZINC000516003207    0.0800
     45 H45        -9.8676    0.9753   59.0653 H       1  ZINC000516003207    0.0700
     46 H46       -11.4465    0.2574   58.5225 H       1  ZINC000516003207    0.0900
@<TRIPOS>BOND
     1     1     2    1
     2     1    27    1
     3     1    28    1
     4     1    29    1
     5     2     3    1
     6     3     4    1
     7     3    23    1
     8     3     5    1
     9     5     6    1
    10     5    30    1
    11     5    31    1
    12     6     7    1
    13     6     8    1
    14     6    23    1
    15     8     9   am
    16     8    32    1
    17     9    10    2
    18     9    11    1
    19    11    22   ar
    20    11    12   ar
    21    12    13   ar
    22    12    33    1
    23    13    14   ar
    24    13    34    1
    25    14    15   ar
    26    14    35    1
    27    15    16    1
    28    15    22   ar
    29    16    21    1
    30    16    17    2
    31    17    18    1
    32    17    36    1
    33    18    19    1
    34    19    20    1
    35    19    21    2
    36    20    37    1
    37    20    38    1
    38    20    39    1
    39    22    40    1
    40    23    26    1
    41    23    24    1
    42    24    25    1
    43    24    41    1
    44    24    42    1
    45    25    26    1
    46    25    43    1
    47    25    44    1
    48    26    45    1
    49    26    46    1
@<TRIPOS>SUBSTRUCTURE
     1 ZINC000516003207        1 TEMP              0 ****  ****    0 ROOT


##########                                Name:    ZINC000345028113
##########                DOCK_Rotatable_Bonds:                   5
##########                         Heavy_Atoms:                  21
##########                    Molecular_Weight:             331.838
##########                DOCK_Rotatable_Bonds:                   5
##########                       Formal_Charge:         4.47035e-07
##########                     HBond_Acceptors:                   6
##########                        HBond_Donors:                   0
##########                         Heavy_Atoms:                  21
##########                          Grid_Score:          -29.870363
##########                     Grid_vdw_energy:          -29.738791
##########                      Grid_es_energy:           -0.131572
##########           Internal_energy_repulsive:           13.541238

@<TRIPOS>MOLECULE
ZINC000345028113
 40 41 1 0 0
SMALL
USER_CHARGES


@<TRIPOS>ATOM
      1 C1        -15.0115   -3.6653   58.1869 C.3     1  ZINC000345028113   -0.1700
      2 C2        -13.6938   -3.2727   57.5156 C.3     1  ZINC000345028113    0.1400
      3 H3        -13.1812   -2.5308   58.1278 H       1  ZINC000345028113    0.1100
      4 C4        -13.9822   -2.6816   56.1315 C.3     1  ZINC000345028113   -0.0700
      5 H5        -13.0479   -2.3662   55.6670 H       1  ZINC000345028113    0.0900
      6 C6        -14.9167   -1.4783   56.2722 C.3     1  ZINC000345028113   -0.1400
      7 S7        -14.7737   -3.9549   55.1042 S.3     1  ZINC000345028113   -0.2400
      8 C8        -13.5905   -5.3302   55.2119 C.3     1  ZINC000345028113   -0.1100
      9 C9        -13.3418   -5.6532   56.6891 C.3     1  ZINC000345028113    0.1000
     10 N10       -12.8466   -4.4578   57.3735 N.am    1  ZINC000345028113   -0.6100
     11 C11       -11.5970   -4.4483   57.8784 C.2     1  ZINC000345028113    0.5200
     12 O12       -10.8900   -5.4273   57.7657 O.2     1  ZINC000345028113   -0.5300
     13 C13       -11.0783   -3.2213   58.5831 C.3     1  ZINC000345028113   -0.1400
     14 C14        -9.6282   -3.4542   59.0120 C.3     1  ZINC000345028113    0.0700
     15 O15        -8.9367   -2.2043   59.0520 O.3     1  ZINC000345028113   -0.3000
     16 C16        -9.2805   -1.3401   60.0438 C.ar    1  ZINC000345028113    0.1300
     17 C17        -9.1034   -1.7007   61.3707 C.ar    1  ZINC000345028113   -0.1700
     18 C18        -9.4528   -0.8213   62.3779 C.ar    1  ZINC000345028113   -0.1100
     19 C19        -9.9795    0.4195   62.0630 C.ar    1  ZINC000345028113    0.0800
     20 F20       -10.3200    1.2780   63.0490 F       1  ZINC000345028113   -0.1300
     21 C21       -10.1572    0.7819   60.7383 C.ar    1  ZINC000345028113   -0.1100
     22 C22        -9.8038   -0.0934   59.7286 C.ar    1  ZINC000345028113   -0.0400
     23 Cl23      -10.0266    0.3607   58.0680 Cl      1  ZINC000345028113   -0.0400
     24 H24       -14.8064   -4.0857   59.1715 H       1  ZINC000345028113    0.0600
     25 H25       -15.6424   -2.7828   58.2928 H       1  ZINC000345028113    0.0800
     26 H26       -15.5242   -4.4072   57.5747 H       1  ZINC000345028113    0.0800
     27 H27       -14.4430   -0.7217   56.8978 H       1  ZINC000345028113    0.0800
     28 H28       -15.1205   -1.0593   55.2868 H       1  ZINC000345028113    0.0700
     29 H29       -15.8521   -1.7967   56.7324 H       1  ZINC000345028113    0.0700
     30 H30       -14.0020   -6.2063   54.7107 H       1  ZINC000345028113    0.1200
     31 H31       -12.6520   -5.0427   54.7377 H       1  ZINC000345028113    0.0900
     32 H32       -14.2739   -5.9769   57.1521 H       1  ZINC000345028113    0.0900
     33 H33       -12.6016   -6.4494   56.7672 H       1  ZINC000345028113    0.1000
     34 H34       -11.1246   -2.3674   57.9072 H       1  ZINC000345028113    0.1100
     35 H35       -11.6899   -3.0218   59.4630 H       1  ZINC000345028113    0.1100
     36 H36        -9.6110   -3.9108   60.0016 H       1  ZINC000345028113    0.0800
     37 H37        -9.1399   -4.1169   58.2975 H       1  ZINC000345028113    0.0800
     38 H38        -8.6929   -2.6688   61.6172 H       1  ZINC000345028113    0.1500
     39 H39        -9.3151   -1.1025   63.4116 H       1  ZINC000345028113    0.1500
     40 H40       -10.5685    1.7502   60.4941 H       1  ZINC000345028113    0.1500
@<TRIPOS>BOND
     1     1     2    1
     2     1    24    1
     3     1    25    1
     4     1    26    1
     5     2     3    1
     6     2    10    1
     7     2     4    1
     8     4     5    1
     9     4     6    1
    10     4     7    1
    11     6    27    1
    12     6    28    1
    13     6    29    1
    14     7     8    1
    15     8     9    1
    16     8    30    1
    17     8    31    1
    18     9    10    1
    19     9    32    1
    20     9    33    1
    21    10    11   am
    22    11    12    2
    23    11    13    1
    24    13    14    1
    25    13    34    1
    26    13    35    1
    27    14    15    1
    28    14    36    1
    29    14    37    1
    30    15    16    1
    31    16    22   ar
    32    16    17   ar
    33    17    18   ar
    34    17    38    1
    35    18    19   ar
    36    18    39    1
    37    19    20    1
    38    19    21   ar
    39    21    22   ar
    40    21    40    1
    41    22    23    1
@<TRIPOS>SUBSTRUCTURE
     1 ZINC000345028113        1 TEMP              0 ****  ****    0 ROOT


##########                                Name:    ZINC000119180466
##########                DOCK_Rotatable_Bonds:                  10
##########                         Heavy_Atoms:                  23
##########                    Molecular_Weight:             350.405
##########                DOCK_Rotatable_Bonds:                  10
##########                       Formal_Charge:           0.0299997
##########                     HBond_Acceptors:                   8
##########                        HBond_Donors:                   3
##########                         Heavy_Atoms:                  23
##########                          Grid_Score:          -29.802412
##########                     Grid_vdw_energy:          -29.869381
##########                      Grid_es_energy:            0.066969
##########           Internal_energy_repulsive:           24.457787

@<TRIPOS>MOLECULE
ZINC000119180466
 44 44 1 0 0
SMALL
USER_CHARGES


@<TRIPOS>ATOM
      1 C1        -15.0820   -2.2478   56.7840 C.3     1  ZINC000119180466   -0.1300
      2 S2        -14.3090   -3.2411   55.4777 S.3     1  ZINC000119180466   -0.2200
      3 C3        -13.0456   -4.1837   56.3755 C.3     1  ZINC000119180466   -0.0700
      4 H4        -12.5008   -4.8183   55.6766 H       1  ZINC000119180466    0.1100
      5 C5        -13.7185   -5.0553   57.4377 C.3     1  ZINC000119180466    0.0800
      6 O6        -14.5944   -5.9889   56.8028 O.3     1  ZINC000119180466   -0.5600
      7 C7        -12.0719   -3.2163   57.0514 C.3     1  ZINC000119180466    0.1900
      8 H8        -12.5477   -2.7746   57.9270 H       1  ZINC000119180466    0.1000
      9 C9        -10.8154   -3.9755   57.4824 C.3     1  ZINC000119180466   -0.1700
     10 N10       -11.7034   -2.1568   56.1093 N.am    1  ZINC000119180466   -0.7200
     11 C11       -11.1652   -2.4741   54.9151 C.2     1  ZINC000119180466    0.7100
     12 O12       -10.9870   -3.6399   54.6191 O.2     1  ZINC000119180466   -0.6000
     13 N13       -10.8246   -1.4993   54.0489 N.am    1  ZINC000119180466   -0.7400
     14 C14       -10.2413   -1.8444   52.7501 C.3     1  ZINC000119180466    0.2000
     15 H15        -9.7727   -2.8265   52.8117 H       1  ZINC000119180466    0.1000
     16 C16       -11.3418   -1.8700   51.6875 C.3     1  ZINC000119180466   -0.1600
     17 C17        -9.2052   -0.8160   52.3757 C.ar    1  ZINC000119180466   -0.0600
     18 C18        -8.0487   -1.2048   51.7259 C.ar    1  ZINC000119180466   -0.1100
     19 C19        -7.0984   -0.2614   51.3825 C.ar    1  ZINC000119180466   -0.0600
     20 C20        -7.3048    1.0707   51.6886 C.ar    1  ZINC000119180466   -0.1800
     21 C21        -6.2686    2.0990   51.3148 C.3     1  ZINC000119180466    0.5100
     22 F22        -5.5772    1.6717   50.1759 F       1  ZINC000119180466   -0.1800
     23 F23        -6.8978    3.3196   51.0477 F       1  ZINC000119180466   -0.1800
     24 F24        -5.3684    2.2602   52.3735 F       1  ZINC000119180466   -0.1800
     25 C25        -8.4618    1.4597   52.3372 C.ar    1  ZINC000119180466   -0.0600
     26 C26        -9.4140    0.5168   52.6771 C.ar    1  ZINC000119180466   -0.1100
     27 H27       -14.3308   -1.6072   57.2460 H       1  ZINC000119180466    0.0800
     28 H28       -15.8703   -1.6306   56.3528 H       1  ZINC000119180466    0.1000
     29 H29       -15.5095   -2.9086   57.5382 H       1  ZINC000119180466    0.0800
     30 H30       -12.9569   -5.5959   57.9998 H       1  ZINC000119180466    0.0500
     31 H31       -14.2911   -4.4236   58.1167 H       1  ZINC000119180466    0.0600
     32 H32       -15.2887   -5.5773   56.2703 H       1  ZINC000119180466    0.3800
     33 H33       -10.3396   -4.4172   56.6068 H       1  ZINC000119180466    0.0700
     34 H34       -10.1218   -3.2862   57.9639 H       1  ZINC000119180466    0.0700
     35 H35       -11.0896   -4.7638   58.1834 H       1  ZINC000119180466    0.0700
     36 H36       -11.8467   -1.2268   56.3449 H       1  ZINC000119180466    0.4100
     37 H37       -10.9657   -0.5693   54.2855 H       1  ZINC000119180466    0.4000
     38 H38       -10.9078   -2.1268   50.7211 H       1  ZINC000119180466    0.0700
     39 H39       -12.0911   -2.6138   51.9584 H       1  ZINC000119180466    0.0700
     40 H40       -11.8103   -0.8879   51.6259 H       1  ZINC000119180466    0.0600
     41 H41        -7.8875   -2.2456   51.4868 H       1  ZINC000119180466    0.1300
     42 H42        -6.1945   -0.5653   50.8755 H       1  ZINC000119180466    0.1400
     43 H43        -8.6232    2.5005   52.5761 H       1  ZINC000119180466    0.1400
     44 H44       -10.3180    0.8206   53.1840 H       1  ZINC000119180466    0.1400
@<TRIPOS>BOND
     1     1     2    1
     2     1    27    1
     3     1    28    1
     4     1    29    1
     5     2     3    1
     6     3     4    1
     7     3     5    1
     8     3     7    1
     9     5     6    1
    10     5    30    1
    11     5    31    1
    12     6    32    1
    13     7     8    1
    14     7     9    1
    15     7    10    1
    16     9    33    1
    17     9    34    1
    18     9    35    1
    19    10    11   am
    20    10    36    1
    21    11    12    2
    22    11    13   am
    23    13    14    1
    24    13    37    1
    25    14    15    1
    26    14    16    1
    27    14    17    1
    28    16    38    1
    29    16    39    1
    30    16    40    1
    31    17    26   ar
    32    17    18   ar
    33    18    19   ar
    34    18    41    1
    35    19    20   ar
    36    19    42    1
    37    20    21    1
    38    20    25   ar
    39    21    22    1
    40    21    23    1
    41    21    24    1
    42    25    26   ar
    43    25    43    1
    44    26    44    1
@<TRIPOS>SUBSTRUCTURE
     1 ZINC000119180466        1 TEMP              0 ****  ****    0 ROOT


##########                                Name:    ZINC000426037318
##########                DOCK_Rotatable_Bonds:                   7
##########                         Heavy_Atoms:                  28
##########                    Molecular_Weight:             421.904
##########                DOCK_Rotatable_Bonds:                   7
##########                       Formal_Charge:         -0.00999981
##########                     HBond_Acceptors:                   9
##########                        HBond_Donors:                   1
##########                         Heavy_Atoms:                  28
##########                          Grid_Score:          -29.801920
##########                     Grid_vdw_energy:          -28.572735
##########                      Grid_es_energy:           -1.229186
##########           Internal_energy_repulsive:           22.758070

@<TRIPOS>MOLECULE
ZINC000426037318
 48 50 1 0 0
SMALL
USER_CHARGES


@<TRIPOS>ATOM
      1 C1        -12.9374   -4.4987   54.4187 C.3     1  ZINC000426037318    0.0300
      2 O2        -11.9900   -3.4909   54.0604 O.3     1  ZINC000426037318   -0.3800
      3 C3        -12.4850   -2.1563   54.1870 C.3     1  ZINC000426037318    0.1300
      4 C4        -11.3978   -1.1801   53.8186 C.ar    1  ZINC000426037318    0.3900
      5 N5        -11.4444    0.0441   54.3125 N.ar    1  ZINC000426037318   -0.5700
      6 C6        -10.5155    0.9390   54.0213 C.ar    1  ZINC000426037318    0.4400
      7 O7        -10.5795    2.1885   54.5372 O.3     1  ZINC000426037318   -0.2800
      8 C8        -11.8749    2.7830   54.6386 C.3     1  ZINC000426037318    0.0300
      9 C9         -9.4487    0.5684   53.1587 C.ar    1  ZINC000426037318   -0.2000
     10 C10        -8.3583    1.3184   52.7033 C.2     1  ZINC000426037318    0.0500
     11 C11        -8.1474    2.7558   53.1039 C.3     1  ZINC000426037318   -0.1200
     12 C12        -7.5150    0.6729   51.8882 C.2     1  ZINC000426037318   -0.2700
     13 C13        -6.3093    1.2649   51.2956 C.2     1  ZINC000426037318    0.6000
     14 O14        -6.1760    1.2916   50.0863 O.2     1  ZINC000426037318   -0.5000
     15 N15        -5.3501    1.7787   52.0908 N.am    1  ZINC000426037318   -0.6600
     16 C16        -4.1997    2.3435   51.5253 C.ar    1  ZINC000426037318    0.1200
     17 C17        -3.5196    1.6725   50.5184 C.ar    1  ZINC000426037318   -0.0700
     18 C18        -2.3854    2.2303   49.9609 C.ar    1  ZINC000426037318   -0.0900
     19 C19        -1.6475    1.5018   48.8674 C.3     1  ZINC000426037318   -0.1100
     20 C20        -1.9257    3.4606   50.4068 C.ar    1  ZINC000426037318    0.1300
     21 O21        -0.8094    4.0087   49.8568 O.3     1  ZINC000426037318   -0.3100
     22 C22        -0.3932    5.2784   50.3632 C.3     1  ZINC000426037318    0.0200
     23 C23        -2.6043    4.1326   51.4131 C.ar    1  ZINC000426037318   -0.1800
     24 C24        -3.7417    3.5789   51.9683 C.ar    1  ZINC000426037318   -0.0300
     25 Cl25       -4.5915    4.4197   53.2272 Cl      1  ZINC000426037318   -0.0600
     26 S26        -8.0486   -0.9786   51.6259 S.3     1  ZINC000426037318    0.2200
     27 C27        -9.4489   -0.7436   52.6632 C.ar    1  ZINC000426037318    0.1300
     28 N28       -10.4324   -1.5761   53.0213 N.ar    1  ZINC000426037318   -0.5000
     29 H29       -12.4851   -5.4828   54.2953 H       1  ZINC000426037318    0.0900
     30 H30       -13.2358   -4.3638   55.4583 H       1  ZINC000426037318    0.0500
     31 H31       -13.8140   -4.4185   53.7758 H       1  ZINC000426037318    0.0500
     32 H32       -13.3369   -2.0200   53.5208 H       1  ZINC000426037318    0.0900
     33 H33       -12.7972   -1.9809   55.2165 H       1  ZINC000426037318    0.0800
     34 H34       -12.5074    2.1689   55.2796 H       1  ZINC000426037318    0.0700
     35 H35       -11.7841    3.7812   55.0669 H       1  ZINC000426037318    0.1100
     36 H36       -12.3215    2.8525   53.6467 H       1  ZINC000426037318    0.0700
     37 H37        -7.5463    2.7953   54.0124 H       1  ZINC000426037318    0.0900
     38 H38        -7.6304    3.2841   52.3029 H       1  ZINC000426037318    0.1000
     39 H39        -9.1129    3.2275   53.2863 H       1  ZINC000426037318    0.0800
     40 H40        -5.4564    1.7575   53.0548 H       1  ZINC000426037318    0.4100
     41 H41        -3.8769    0.7144   50.1711 H       1  ZINC000426037318    0.1600
     42 H42        -2.0486    1.7985   47.8983 H       1  ZINC000426037318    0.0700
     43 H43        -0.5879    1.7530   48.9144 H       1  ZINC000426037318    0.0700
     44 H44        -1.7723    0.4269   48.9986 H       1  ZINC000426037318    0.0700
     45 H45        -1.1862    6.0098   50.2064 H       1  ZINC000426037318    0.0600
     46 H46        -0.1829    5.1934   51.4292 H       1  ZINC000426037318    0.0600
     47 H47         0.5070    5.6009   49.8399 H       1  ZINC000426037318    0.1000
     48 H48        -2.2456    5.0906   51.7597 H       1  ZINC000426037318    0.1500
@<TRIPOS>BOND
     1     1     2    1
     2     1    29    1
     3     1    30    1
     4     1    31    1
     5     2     3    1
     6     3     4    1
     7     3    32    1
     8     3    33    1
     9     4    28   ar
    10     4     5   ar
    11     5     6   ar
    12     6     7    1
    13     6     9   ar
    14     7     8    1
    15     8    34    1
    16     8    35    1
    17     8    36    1
    18     9    27   ar
    19     9    10    1
    20    10    11    1
    21    10    12    2
    22    11    37    1
    23    11    38    1
    24    11    39    1
    25    12    13    1
    26    12    26    1
    27    13    14    2
    28    13    15   am
    29    15    16    1
    30    15    40    1
    31    16    24   ar
    32    16    17   ar
    33    17    18   ar
    34    17    41    1
    35    18    19    1
    36    18    20   ar
    37    19    42    1
    38    19    43    1
    39    19    44    1
    40    20    21    1
    41    20    23   ar
    42    21    22    1
    43    22    45    1
    44    22    46    1
    45    22    47    1
    46    23    24   ar
    47    23    48    1
    48    24    25    1
    49    26    27    1
    50    27    28   ar
@<TRIPOS>SUBSTRUCTURE
     1 ZINC000426037318        1 TEMP              0 ****  ****    0 ROOT


##########                                Name:    ZINC000587344575
##########                DOCK_Rotatable_Bonds:                   7
##########                         Heavy_Atoms:                  30
##########                    Molecular_Weight:             408.475
##########                DOCK_Rotatable_Bonds:                   7
##########                       Formal_Charge:          -0.0100002
##########                     HBond_Acceptors:                   7
##########                        HBond_Donors:                   2
##########                         Heavy_Atoms:                  30
##########                          Grid_Score:          -29.783663
##########                     Grid_vdw_energy:          -30.104532
##########                      Grid_es_energy:            0.320869
##########           Internal_energy_repulsive:           30.992619

@<TRIPOS>MOLECULE
ZINC000587344575
 55 57 1 0 0
SMALL
USER_CHARGES


@<TRIPOS>ATOM
      1 C1        -15.5716   -0.6229   53.0997 C.3     1  ZINC000587344575   -0.1200
      2 C2        -14.2252   -1.2934   53.1935 C.ar    1  ZINC000587344575    0.0000
      3 C3        -13.7545   -1.7264   54.4124 C.ar    1  ZINC000587344575   -0.1600
      4 C4        -12.5117   -2.3460   54.4999 C.ar    1  ZINC000587344575    0.1800
      5 N5        -12.0381   -2.7838   55.7362 N.am    1  ZINC000587344575   -0.6700
      6 C6        -11.3414   -1.9436   56.5269 C.2     1  ZINC000587344575    0.5200
      7 O7        -11.1263   -0.8069   56.1630 O.2     1  ZINC000587344575   -0.5000
      8 C8        -10.8295   -2.4167   57.8630 C.3     1  ZINC000587344575   -0.1200
      9 H9        -10.0061   -3.1175   57.7254 H       1  ZINC000587344575    0.1100
     10 C10       -11.9693   -3.0798   58.6699 C.3     1  ZINC000587344575   -0.1200
     11 C11       -11.7008   -2.5903   60.1153 C.3     1  ZINC000587344575    0.0400
     12 N12       -11.2367   -1.1929   59.9201 N.3     1  ZINC000587344575   -0.4800
     13 C13       -10.5274   -0.7424   61.0316 C.ar    1  ZINC000587344575    0.0700
     14 C14        -9.4973   -1.5149   61.5569 C.ar    1  ZINC000587344575   -0.1200
     15 C15        -8.7941   -1.0732   62.6558 C.ar    1  ZINC000587344575   -0.0700
     16 C16        -9.1158    0.1532   63.2436 C.ar    1  ZINC000587344575    0.0000
     17 C17        -8.3858    0.6147   64.3859 C.1     1  ZINC000587344575    0.2500
     18 N18        -7.8069    0.9809   65.2920 N.1     1  ZINC000587344575   -0.4000
     19 C19       -10.1518    0.9290   62.7136 C.ar    1  ZINC000587344575   -0.1000
     20 C20       -10.8481    0.4840   61.6109 C.ar    1  ZINC000587344575    0.1300
     21 F21       -11.8488    1.2322   61.0973 F       1  ZINC000587344575   -0.1200
     22 C22       -10.3744   -1.2182   58.7160 C.3     1  ZINC000587344575    0.0500
     23 C23       -11.7407   -2.5301   53.3566 C.ar    1  ZINC000587344575   -0.1400
     24 C24       -12.2056   -2.0995   52.1342 C.ar    1  ZINC000587344575   -0.0600
     25 C25       -13.4556   -1.4816   52.0421 C.ar    1  ZINC000587344575   -0.1600
     26 C26       -13.9573   -1.0191   50.7333 C.2     1  ZINC000587344575    0.5600
     27 O27       -13.6189    0.0659   50.3015 O.2     1  ZINC000587344575   -0.5300
     28 N28       -14.7905   -1.7995   50.0170 N.am    1  ZINC000587344575   -0.7200
     29 C29       -15.2899   -1.3396   48.7188 C.3     1  ZINC000587344575    0.1400
     30 C30       -16.0485   -0.0236   48.9011 C.3     1  ZINC000587344575   -0.1600
     31 C31       -14.1116   -1.1215   47.7673 C.3     1  ZINC000587344575   -0.1600
     32 H32       -16.3234   -1.3566   52.8092 H       1  ZINC000587344575    0.0800
     33 H33       -15.8340   -0.1978   54.0684 H       1  ZINC000587344575    0.0600
     34 H34       -15.5310    0.1707   52.3536 H       1  ZINC000587344575    0.1000
     35 H35       -14.3504   -1.5846   55.3020 H       1  ZINC000587344575    0.1300
     36 H36       -12.2101   -3.6929   56.0271 H       1  ZINC000587344575    0.4100
     37 H37       -12.9418   -2.7336   58.3199 H       1  ZINC000587344575    0.0900
     38 H38       -11.9017   -4.1661   58.6118 H       1  ZINC000587344575    0.0900
     39 H39       -12.6169   -2.6125   60.7055 H       1  ZINC000587344575    0.0900
     40 H40       -10.9234   -3.1915   60.5868 H       1  ZINC000587344575    0.0600
     41 H41        -9.2485   -2.4627   61.1028 H       1  ZINC000587344575    0.1400
     42 H42        -7.9949   -1.6746   63.0632 H       1  ZINC000587344575    0.1400
     43 H43       -10.4029    1.8773   63.1654 H       1  ZINC000587344575    0.1500
     44 H44        -9.3317   -1.3423   59.0085 H       1  ZINC000587344575    0.0600
     45 H45       -10.4970   -0.2934   58.1520 H       1  ZINC000587344575    0.1100
     46 H46       -10.7764   -3.0110   53.4280 H       1  ZINC000587344575    0.1400
     47 H47       -11.6066   -2.2427   51.2470 H       1  ZINC000587344575    0.1300
     48 H48       -15.0596   -2.6656   50.3610 H       1  ZINC000587344575    0.4000
     49 H49       -15.9602   -2.0905   48.3006 H       1  ZINC000587344575    0.0900
     50 H50       -15.3781    0.7273   49.3193 H       1  ZINC000587344575    0.0600
     51 H51       -16.4200    0.3185   47.9353 H       1  ZINC000587344575    0.0700
     52 H52       -16.8879   -0.1790   49.5790 H       1  ZINC000587344575    0.0600
     53 H53       -13.4412   -0.3706   48.1854 H       1  ZINC000587344575    0.0600
     54 H54       -13.5711   -2.0590   47.6374 H       1  ZINC000587344575    0.0600
     55 H55       -14.4831   -0.7793   46.8014 H       1  ZINC000587344575    0.0700
@<TRIPOS>BOND
     1     1     2    1
     2     1    32    1
     3     1    33    1
     4     1    34    1
     5     2    25   ar
     6     2     3   ar
     7     3     4   ar
     8     3    35    1
     9     4     5    1
    10     4    23   ar
    11     5     6   am
    12     5    36    1
    13     6     7    2
    14     6     8    1
    15     8     9    1
    16     8    22    1
    17     8    10    1
    18    10    11    1
    19    10    37    1
    20    10    38    1
    21    11    12    1
    22    11    39    1
    23    11    40    1
    24    12    13    1
    25    12    22    1
    26    13    20   ar
    27    13    14   ar
    28    14    15   ar
    29    14    41    1
    30    15    16   ar
    31    15    42    1
    32    16    17    1
    33    16    19   ar
    34    17    18    3
    35    19    20   ar
    36    19    43    1
    37    20    21    1
    38    22    44    1
    39    22    45    1
    40    23    24   ar
    41    23    46    1
    42    24    25   ar
    43    24    47    1
    44    25    26    1
    45    26    27    2
    46    26    28   am
    47    28    29    1
    48    28    48    1
    49    29    30    1
    50    29    31    1
    51    29    49    1
    52    30    50    1
    53    30    51    1
    54    30    52    1
    55    31    53    1
    56    31    54    1
    57    31    55    1
@<TRIPOS>SUBSTRUCTURE
     1 ZINC000587344575        1 TEMP              0 ****  ****    0 ROOT


##########                                Name:    ZINC000768148687
##########                DOCK_Rotatable_Bonds:                   8
##########                         Heavy_Atoms:                  25
##########                    Molecular_Weight:             371.307
##########                DOCK_Rotatable_Bonds:                   8
##########                       Formal_Charge:         2.98023e-08
##########                     HBond_Acceptors:                  11
##########                        HBond_Donors:                   0
##########                         Heavy_Atoms:                  25
##########                          Grid_Score:          -29.767265
##########                     Grid_vdw_energy:          -28.301607
##########                      Grid_es_energy:           -1.465659
##########           Internal_energy_repulsive:           11.953253

@<TRIPOS>MOLECULE
ZINC000768148687
 43 44 1 0 0
SMALL
USER_CHARGES


@<TRIPOS>ATOM
      1 C1         -9.7034    1.4150   63.1087 C.3     1  ZINC000768148687   -0.1800
      2 C2         -9.6584   -0.1124   63.0311 C.3     1  ZINC000768148687    0.1100
      3 N3        -10.7301   -0.5886   62.1531 N.pl3   1  ZINC000768148687   -0.3100
      4 N4        -12.0796   -0.7106   62.5027 N.2     1  ZINC000768148687   -0.2000
      5 C5        -12.7432   -1.1641   61.4755 C.2     1  ZINC000768148687    0.0200
      6 C6        -14.2241   -1.4392   61.4291 C.3     1  ZINC000768148687    0.5500
      7 F7        -14.4507   -2.6670   60.7980 F       1  ZINC000768148687   -0.1600
      8 F8        -14.7311   -1.4842   62.7322 F       1  ZINC000768148687   -0.1600
      9 F9        -14.8653   -0.4220   60.7140 F       1  ZINC000768148687   -0.1500
     10 C10       -11.8297   -1.3523   60.4135 C.2     1  ZINC000768148687   -0.1800
     11 C11       -12.1475   -1.8508   59.0645 C.2     1  ZINC000768148687    0.5300
     12 O12       -12.6620   -1.1112   58.2489 O.2     1  ZINC000768148687   -0.4700
     13 O13       -11.8678   -3.1271   58.7345 O.3     1  ZINC000768148687   -0.3400
     14 C14       -12.3330   -3.5903   57.4394 C.3     1  ZINC000768148687    0.0200
     15 C15       -11.2938   -3.2451   56.3710 C.3     1  ZINC000768148687    0.0600
     16 N16       -11.8181   -3.5993   55.0452 N.3     1  ZINC000768148687   -0.5300
     17 C17       -10.7642   -3.5201   54.0234 C.3     1  ZINC000768148687    0.0100
     18 C18       -11.3377   -3.9535   52.6717 C.3     1  ZINC000768148687    0.0600
     19 O19       -12.4643   -3.1323   52.3522 O.3     1  ZINC000768148687   -0.3800
     20 C20       -13.5103   -3.1859   53.3260 C.3     1  ZINC000768148687    0.0600
     21 C21       -12.9588   -2.7448   54.6844 C.3     1  ZINC000768148687    0.0100
     22 C22       -10.5839   -0.9757   60.8763 C.2     1  ZINC000768148687    0.0600
     23 C23        -9.2959   -1.0039   60.0946 C.3     1  ZINC000768148687    0.3400
     24 F24        -9.0194   -2.3169   59.6986 F       1  ZINC000768148687   -0.1700
     25 F25        -9.4196   -0.1916   58.9624 F       1  ZINC000768148687   -0.1800
     26 H26        -8.9060    1.7692   63.7619 H       1  ZINC000768148687    0.0900
     27 H27        -9.5690    1.8336   62.1113 H       1  ZINC000768148687    0.0700
     28 H28       -10.6673    1.7302   63.5082 H       1  ZINC000768148687    0.0700
     29 H29        -8.6945   -0.4277   62.6316 H       1  ZINC000768148687    0.1100
     30 H30        -9.7928   -0.5310   64.0285 H       1  ZINC000768148687    0.1200
     31 H31       -12.4776   -4.6702   57.4702 H       1  ZINC000768148687    0.0800
     32 H32       -13.2780   -3.1038   57.1976 H       1  ZINC000768148687    0.0800
     33 H33       -11.0801   -2.1768   56.4036 H       1  ZINC000768148687    0.1100
     34 H34       -10.3779   -3.8047   56.5608 H       1  ZINC000768148687    0.0900
     35 H35       -10.4017   -2.4946   53.9531 H       1  ZINC000768148687    0.0500
     36 H36        -9.9409   -4.1798   54.2978 H       1  ZINC000768148687    0.0900
     37 H37       -10.5757   -3.8420   51.9004 H       1  ZINC000768148687    0.1000
     38 H38       -11.6511   -4.9960   52.7267 H       1  ZINC000768148687    0.0600
     39 H39       -14.3195   -2.5193   53.0280 H       1  ZINC000768148687    0.1000
     40 H40       -13.8868   -4.2061   53.4001 H       1  ZINC000768148687    0.0600
     41 H41       -13.7375   -2.8384   55.4412 H       1  ZINC000768148687    0.0800
     42 H42       -12.6314   -1.7068   54.6246 H       1  ZINC000768148687    0.0700
     43 H43        -8.4831   -0.6342   60.7199 H       1  ZINC000768148687    0.1500
@<TRIPOS>BOND
     1     1     2    1
     2     1    26    1
     3     1    27    1
     4     1    28    1
     5     2     3    1
     6     2    29    1
     7     2    30    1
     8     3    22    1
     9     3     4    1
    10     4     5    2
    11     5     6    1
    12     5    10    1
    13     6     7    1
    14     6     8    1
    15     6     9    1
    16    10    11    1
    17    10    22    2
    18    11    12    2
    19    11    13    1
    20    13    14    1
    21    14    15    1
    22    14    31    1
    23    14    32    1
    24    15    16    1
    25    15    33    1
    26    15    34    1
    27    16    21    1
    28    16    17    1
    29    17    18    1
    30    17    35    1
    31    17    36    1
    32    18    19    1
    33    18    37    1
    34    18    38    1
    35    19    20    1
    36    20    21    1
    37    20    39    1
    38    20    40    1
    39    21    41    1
    40    21    42    1
    41    22    23    1
    42    23    24    1
    43    23    25    1
    44    23    43    1
@<TRIPOS>SUBSTRUCTURE
     1 ZINC000768148687        1 TEMP              0 ****  ****    0 ROOT


##########                                Name:    ZINC000438893617
##########                DOCK_Rotatable_Bonds:                   5
##########                         Heavy_Atoms:                  29
##########                    Molecular_Weight:             412.596
##########                DOCK_Rotatable_Bonds:                   5
##########                       Formal_Charge:           0.0600001
##########                     HBond_Acceptors:                   5
##########                        HBond_Donors:                   0
##########                         Heavy_Atoms:                  29
##########                          Grid_Score:          -29.661051
##########                     Grid_vdw_energy:          -28.553904
##########                      Grid_es_energy:           -1.107147
##########           Internal_energy_repulsive:          166.930740

@<TRIPOS>MOLECULE
ZINC000438893617
 61 66 1 0 0
SMALL
USER_CHARGES


@<TRIPOS>ATOM
      1 C1         -8.8060    0.2961   67.1105 C.3     1  ZINC000438893617   -0.1000
      2 C2         -8.8600    1.6969   66.5576 C.2     1  ZINC000438893617   -0.0900
      3 C3         -9.4249    1.9837   65.3837 C.2     1  ZINC000438893617   -0.1600
      4 C4        -10.0736    0.9816   64.4639 C.3     1  ZINC000438893617   -0.0400
      5 H5        -10.9029    0.4186   64.8920 H       1  ZINC000438893617    0.1400
      6 C6         -9.1743    0.2600   63.4583 C.3     1  ZINC000438893617   -0.1400
      7 C7        -10.1523    1.3347   62.9774 C.3     1  ZINC000438893617   -0.1800
      8 H8         -9.7346    2.2916   62.6645 H       1  ZINC000438893617    0.1300
      9 C9        -11.3699    0.8771   62.2163 C.2     1  ZINC000438893617    0.5500
     10 O10       -12.4698    0.9715   62.7186 O.2     1  ZINC000438893617   -0.5300
     11 N11       -11.2365    0.3630   60.9776 N.am    1  ZINC000438893617   -0.6100
     12 C12        -9.9097    0.2387   60.3583 C.3     1  ZINC000438893617    0.0900
     13 C13        -9.6991   -1.2218   59.9398 C.3     1  ZINC000438893617    0.1000
     14 N14       -10.8780   -1.6685   59.1845 N.am    1  ZINC000438893617   -0.6100
     15 C15       -10.7445   -2.1835   57.9462 C.2     1  ZINC000438893617    0.5300
     16 O16        -9.6442   -2.2815   57.4455 O.2     1  ZINC000438893617   -0.5300
     17 C17       -11.9626   -2.6375   57.1837 C.3     1  ZINC000438893617   -0.0700
     18 C18       -12.8876   -1.4430   56.9422 C.3     1  ZINC000438893617   -0.1100
     19 C19       -14.1242   -1.9040   56.1681 C.3     1  ZINC000438893617   -0.0800
     20 C20       -14.8663   -2.9681   56.9791 C.3     1  ZINC000438893617   -0.1100
     21 C21       -13.9412   -4.1625   57.2205 C.3     1  ZINC000438893617   -0.0800
     22 C22       -13.5105   -4.7539   55.8768 C.3     1  ZINC000438893617   -0.1100
     23 C23       -12.7684   -3.6898   55.0657 C.3     1  ZINC000438893617   -0.0900
     24 C24       -13.6936   -2.4953   54.8242 C.3     1  ZINC000438893617   -0.1100
     25 C25       -11.5318   -3.2287   55.8399 C.3     1  ZINC000438893617   -0.0900
     26 C26       -12.7047   -3.7016   57.9947 C.3     1  ZINC000438893617   -0.1200
     27 C27       -12.2049   -1.5441   59.8038 C.3     1  ZINC000438893617    0.0700
     28 C28       -12.4149   -0.0889   60.2246 C.3     1  ZINC000438893617    0.1000
     29 S29        -9.2973    3.7103   65.0739 S.3     1  ZINC000438893617    0.1000
     30 C30        -8.4593    3.9528   66.6011 C.2     1  ZINC000438893617   -0.2100
     31 C31        -8.3323    2.7845   67.2321 C.2     1  ZINC000438893617   -0.1300
     32 H32        -9.6964    0.1077   67.7105 H       1  ZINC000438893617    0.0700
     33 H33        -8.7646   -0.4179   66.2879 H       1  ZINC000438893617    0.0700
     34 H34        -7.9182    0.1852   67.7331 H       1  ZINC000438893617    0.0700
     35 H35        -8.1134    0.5099   63.4621 H       1  ZINC000438893617    0.1100
     36 H36        -9.4121   -0.7778   63.2246 H       1  ZINC000438893617    0.1100
     37 H37        -9.8538    0.8824   59.4804 H       1  ZINC000438893617    0.0800
     38 H38        -9.1422    0.5277   61.0763 H       1  ZINC000438893617    0.1000
     39 H39        -8.8116   -1.2980   59.3115 H       1  ZINC000438893617    0.1100
     40 H40        -9.5764   -1.8425   60.8273 H       1  ZINC000438893617    0.0700
     41 H41       -13.1945   -1.0218   57.8996 H       1  ZINC000438893617    0.0800
     42 H42       -12.3589   -0.6849   56.3644 H       1  ZINC000438893617    0.0700
     43 H43       -14.7833   -1.0530   55.9961 H       1  ZINC000438893617    0.0800
     44 H44       -15.1732   -2.5469   57.9365 H       1  ZINC000438893617    0.0600
     45 H45       -15.7473   -3.2964   56.4276 H       1  ZINC000438893617    0.0700
     46 H46       -14.4699   -4.9206   57.7983 H       1  ZINC000438893617    0.0800
     47 H47       -12.8515   -5.6048   56.0487 H       1  ZINC000438893617    0.0600
     48 H48       -14.3915   -5.0823   55.3253 H       1  ZINC000438893617    0.0700
     49 H49       -12.4615   -4.1110   54.1083 H       1  ZINC000438893617    0.0700
     50 H50       -14.5745   -2.8236   54.2727 H       1  ZINC000438893617    0.0700
     51 H51       -13.1649   -1.7372   54.2464 H       1  ZINC000438893617    0.0600
     52 H52       -11.0031   -2.4707   55.2620 H       1  ZINC000438893617    0.0700
     53 H53       -10.8727   -4.0797   56.0119 H       1  ZINC000438893617    0.0700
     54 H54       -12.0455   -4.5526   58.1667 H       1  ZINC000438893617    0.0700
     55 H55       -13.0114   -3.2804   58.9520 H       1  ZINC000438893617    0.0800
     56 H56       -12.9723   -1.8332   59.0858 H       1  ZINC000438893617    0.1300
     57 H57       -12.2607   -2.1879   60.6817 H       1  ZINC000438893617    0.0800
     58 H58       -13.3026   -0.0141   60.8526 H       1  ZINC000438893617    0.1100
     59 H59       -12.5372    0.5341   59.3384 H       1  ZINC000438893617    0.0700
     60 H60        -8.1057    4.9031   66.9731 H       1  ZINC000438893617    0.1700
     61 H61        -7.8474    2.6928   68.1927 H       1  ZINC000438893617    0.1400
@<TRIPOS>BOND
     1     1     2    1
     2     1    32    1
     3     1    33    1
     4     1    34    1
     5     2    31    1
     6     2     3    2
     7     3     4    1
     8     3    29    1
     9     4     5    1
    10     4     7    1
    11     4     6    1
    12     6     7    1
    13     6    35    1
    14     6    36    1
    15     7     8    1
    16     7     9    1
    17     9    10    2
    18     9    11   am
    19    11    28    1
    20    11    12    1
    21    12    13    1
    22    12    37    1
    23    12    38    1
    24    13    14    1
    25    13    39    1
    26    13    40    1
    27    14    15   am
    28    14    27    1
    29    15    16    2
    30    15    17    1
    31    17    25    1
    32    17    26    1
    33    17    18    1
    34    18    19    1
    35    18    41    1
    36    18    42    1
    37    19    24    1
    38    19    20    1
    39    19    43    1
    40    20    21    1
    41    20    44    1
    42    20    45    1
    43    21    22    1
    44    21    26    1
    45    21    46    1
    46    22    23    1
    47    22    47    1
    48    22    48    1
    49    23    24    1
    50    23    25    1
    51    23    49    1
    52    24    50    1
    53    24    51    1
    54    25    52    1
    55    25    53    1
    56    26    54    1
    57    26    55    1
    58    27    28    1
    59    27    56    1
    60    27    57    1
    61    28    58    1
    62    28    59    1
    63    29    30    1
    64    30    31    2
    65    30    60    1
    66    31    61    1
@<TRIPOS>SUBSTRUCTURE
     1 ZINC000438893617        1 TEMP              0 ****  ****    0 ROOT


##########                                Name:    ZINC000863208514
##########                DOCK_Rotatable_Bonds:                   6
##########                         Heavy_Atoms:                  19
##########                    Molecular_Weight:             368.657
##########                DOCK_Rotatable_Bonds:                   6
##########                       Formal_Charge:           0.0100005
##########                     HBond_Acceptors:                   7
##########                        HBond_Donors:                   2
##########                         Heavy_Atoms:                  19
##########                          Grid_Score:          -29.658770
##########                     Grid_vdw_energy:          -26.001509
##########                      Grid_es_energy:           -3.657261
##########           Internal_energy_repulsive:           10.083488

@<TRIPOS>MOLECULE
ZINC000863208514
 31 31 1 0 0
SMALL
USER_CHARGES


@<TRIPOS>ATOM
      1 C1         -8.3714    0.6658   67.3958 C.3     1  ZINC000863208514    0.0900
      2 N2         -8.5489    0.7986   65.9477 N.am    1  ZINC000863208514   -0.6100
      3 C3         -8.7593    2.1212   65.3538 C.3     1  ZINC000863208514    0.0700
      4 C4         -8.5188   -0.2960   65.1619 C.2     1  ZINC000863208514    0.5100
      5 O5         -8.3463   -1.3910   65.6537 O.2     1  ZINC000863208514   -0.5400
      6 C6         -8.6997   -0.1591   63.6721 C.3     1  ZINC000863208514    0.1100
      7 N7        -10.1240   -0.2529   63.3424 N.am    1  ZINC000863208514   -0.6600
      8 C8        -10.5087   -0.7573   62.1533 C.2     1  ZINC000863208514    0.5600
      9 S9        -12.1733   -0.8688   61.7689 S.2     1  ZINC000863208514   -0.6000
     10 N10        -9.5830   -1.1741   61.2668 N.am    1  ZINC000863208514   -0.6300
     11 C11        -9.9828   -1.6983   60.0312 C.ar    1  ZINC000863208514    0.1200
     12 C12       -10.5470   -0.8678   59.0735 C.ar    1  ZINC000863208514   -0.0300
     13 C13       -10.9405   -1.3877   57.8540 C.ar    1  ZINC000863208514   -0.0200
     14 Cl14      -11.6458   -0.3488   56.6554 Cl      1  ZINC000863208514   -0.0300
     15 C15       -10.7722   -2.7356   57.5878 C.ar    1  ZINC000863208514   -0.0600
     16 Br16      -11.3116   -3.4425   55.9189 Br      1  ZINC000863208514   -0.0100
     17 C17       -10.2095   -3.5668   58.5404 C.ar    1  ZINC000863208514   -0.1100
     18 C18        -9.8099   -3.0515   59.7595 C.ar    1  ZINC000863208514    0.1100
     19 F19        -9.2605   -3.8630   60.6894 F       1  ZINC000863208514   -0.1200
     20 H20        -8.4259    1.6503   67.8604 H       1  ZINC000863208514    0.0800
     21 H21        -9.1575    0.0287   67.8014 H       1  ZINC000863208514    0.0700
     22 H22        -7.3989    0.2194   67.6033 H       1  ZINC000863208514    0.0700
     23 H23        -7.7961    2.5593   65.0922 H       1  ZINC000863208514    0.0700
     24 H24        -9.3699    2.0235   64.4562 H       1  ZINC000863208514    0.0800
     25 H25        -9.2683    2.7648   66.0712 H       1  ZINC000863208514    0.0800
     26 H26        -8.3142    0.8071   63.3466 H       1  ZINC000863208514    0.1200
     27 H27        -8.1562   -0.9565   63.1653 H       1  ZINC000863208514    0.1200
     28 H28       -10.7902    0.0483   63.9799 H       1  ZINC000863208514    0.4100
     29 H29        -8.6399   -1.1110   61.4847 H       1  ZINC000863208514    0.4200
     30 H30       -10.6790    0.1840   59.2804 H       1  ZINC000863208514    0.1800
     31 H31       -10.0793   -4.6181   58.3302 H       1  ZINC000863208514    0.1600
@<TRIPOS>BOND
     1     1     2    1
     2     1    20    1
     3     1    21    1
     4     1    22    1
     5     2     3    1
     6     2     4   am
     7     3    23    1
     8     3    24    1
     9     3    25    1
    10     4     5    2
    11     4     6    1
    12     6     7    1
    13     6    26    1
    14     6    27    1
    15     7     8   am
    16     7    28    1
    17     8     9    2
    18     8    10   am
    19    10    11    1
    20    10    29    1
    21    11    18   ar
    22    11    12   ar
    23    12    13   ar
    24    12    30    1
    25    13    14    1
    26    13    15   ar
    27    15    16    1
    28    15    17   ar
    29    17    18   ar
    30    17    31    1
    31    18    19    1
@<TRIPOS>SUBSTRUCTURE
     1 ZINC000863208514        1 TEMP              0 ****  ****    0 ROOT


##########                                Name:    ZINC000341804698
##########                DOCK_Rotatable_Bonds:                   7
##########                         Heavy_Atoms:                  24
##########                    Molecular_Weight:             342.318
##########                DOCK_Rotatable_Bonds:                   7
##########                       Formal_Charge:                0.02
##########                     HBond_Acceptors:                   8
##########                        HBond_Donors:                   0
##########                         Heavy_Atoms:                  24
##########                          Grid_Score:          -29.599619
##########                     Grid_vdw_energy:          -29.832098
##########                      Grid_es_energy:            0.232478
##########           Internal_energy_repulsive:           26.677717

@<TRIPOS>MOLECULE
ZINC000341804698
 41 42 1 0 0
SMALL
USER_CHARGES


@<TRIPOS>ATOM
      1 C1         -9.6803    0.0949   63.3113 C.3     1  ZINC000341804698    0.0300
      2 O2        -10.0128    0.5184   61.9876 O.3     1  ZINC000341804698   -0.3900
      3 C3        -11.1172   -0.1831   61.4131 C.3     1  ZINC000341804698    0.0700
      4 C4        -10.6812   -0.8310   60.0974 C.3     1  ZINC000341804698    0.0400
      5 C5         -9.8244    0.1044   59.3505 C.1     1  ZINC000341804698    0.2200
      6 N6         -9.1632    0.8262   58.7741 N.1     1  ZINC000341804698   -0.4200
      7 C7         -9.8989   -2.1122   60.3947 C.3     1  ZINC000341804698   -0.1200
      8 C8         -9.4344   -2.7396   59.0765 C.3     1  ZINC000341804698    0.1100
      9 N9        -10.6031   -2.9340   58.2076 N.am    1  ZINC000341804698   -0.6000
     10 C10       -10.8697   -4.1433   57.6756 C.2     1  ZINC000341804698    0.5700
     11 O11       -10.1400   -5.0860   57.9132 O.2     1  ZINC000341804698   -0.5200
     12 C12       -12.0496   -4.3233   56.8031 C.ar    1  ZINC000341804698   -0.0900
     13 C13       -13.2138   -4.9023   57.3102 C.ar    1  ZINC000341804698   -0.1100
     14 C14       -14.3133   -5.0690   56.4929 C.ar    1  ZINC000341804698   -0.0800
     15 C15       -14.2658   -4.6641   55.1720 C.ar    1  ZINC000341804698   -0.1700
     16 C16       -13.1118   -4.0875   54.6584 C.ar    1  ZINC000341804698    0.1100
     17 O17       -13.0705   -3.6916   53.3588 O.3     1  ZINC000341804698   -0.3100
     18 C18       -11.9252   -2.9442   52.9444 C.3     1  ZINC000341804698    0.6000
     19 F19       -11.7518   -1.8468   53.7946 F       1  ZINC000341804698   -0.1600
     20 F20       -10.7906   -3.7607   52.9996 F       1  ZINC000341804698   -0.1300
     21 F21       -12.1120   -2.4934   51.6333 F       1  ZINC000341804698   -0.1600
     22 C22       -12.0051   -3.9099   55.4712 C.ar    1  ZINC000341804698   -0.0700
     23 C23       -11.4760   -1.7852   57.9301 C.3     1  ZINC000341804698    0.0900
     24 C24       -11.9176   -1.1687   59.2610 C.3     1  ZINC000341804698   -0.1200
     25 H25       -10.5363    0.2495   63.9681 H       1  ZINC000341804698    0.0400
     26 H26        -9.4181   -0.9631   63.2992 H       1  ZINC000341804698    0.0500
     27 H27        -8.8327    0.6750   63.6763 H       1  ZINC000341804698    0.0900
     28 H28       -11.4559   -0.9554   62.1037 H       1  ZINC000341804698    0.0700
     29 H29       -11.9316    0.5157   61.2217 H       1  ZINC000341804698    0.0600
     30 H30        -9.0312   -1.8742   61.0099 H       1  ZINC000341804698    0.1000
     31 H31       -10.5404   -2.8153   60.9260 H       1  ZINC000341804698    0.0900
     32 H32        -8.7216   -2.0758   58.5871 H       1  ZINC000341804698    0.0700
     33 H33        -8.9632   -3.7020   59.2759 H       1  ZINC000341804698    0.1100
     34 H34       -13.2542   -5.2201   58.3416 H       1  ZINC000341804698    0.1400
     35 H35       -15.2135   -5.5174   56.8864 H       1  ZINC000341804698    0.1400
     36 H36       -15.1293   -4.7969   54.5370 H       1  ZINC000341804698    0.1400
     37 H37       -11.1070   -3.4612   55.0731 H       1  ZINC000341804698    0.1500
     38 H38       -10.9297   -1.0437   57.3471 H       1  ZINC000341804698    0.0800
     39 H39       -12.3519   -2.1179   57.3731 H       1  ZINC000341804698    0.1100
     40 H40       -12.5401   -1.8805   59.8031 H       1  ZINC000341804698    0.1000
     41 H41       -12.4868   -0.2589   59.0695 H       1  ZINC000341804698    0.0900
@<TRIPOS>BOND
     1     1     2    1
     2     1    25    1
     3     1    26    1
     4     1    27    1
     5     2     3    1
     6     3     4    1
     7     3    28    1
     8     3    29    1
     9     4    24    1
    10     4     5    1
    11     4     7    1
    12     5     6    3
    13     7     8    1
    14     7    30    1
    15     7    31    1
    16     8     9    1
    17     8    32    1
    18     8    33    1
    19     9    10   am
    20     9    23    1
    21    10    11    2
    22    10    12    1
    23    12    22   ar
    24    12    13   ar
    25    13    14   ar
    26    13    34    1
    27    14    15   ar
    28    14    35    1
    29    15    16   ar
    30    15    36    1
    31    16    17    1
    32    16    22   ar
    33    17    18    1
    34    18    19    1
    35    18    20    1
    36    18    21    1
    37    22    37    1
    38    23    24    1
    39    23    38    1
    40    23    39    1
    41    24    40    1
    42    24    41    1
@<TRIPOS>SUBSTRUCTURE
     1 ZINC000341804698        1 TEMP              0 ****  ****    0 ROOT


##########                                Name:    ZINC001076281847
##########                DOCK_Rotatable_Bonds:                   4
##########                         Heavy_Atoms:                  24
##########                    Molecular_Weight:             362.883
##########                DOCK_Rotatable_Bonds:                   4
##########                       Formal_Charge:         -0.00999959
##########                     HBond_Acceptors:                   7
##########                        HBond_Donors:                   0
##########                         Heavy_Atoms:                  24
##########                          Grid_Score:          -29.578087
##########                     Grid_vdw_energy:          -29.713886
##########                      Grid_es_energy:            0.135800
##########           Internal_energy_repulsive:            9.434592

@<TRIPOS>MOLECULE
ZINC001076281847
 43 46 1 0 0
SMALL
USER_CHARGES


@<TRIPOS>ATOM
      1 C1        -11.5271    4.2050   62.1230 C.3     1  ZINC001076281847   -0.0900
      2 C2        -11.2528    3.5369   60.8003 C.2     1  ZINC001076281847    0.1400
      3 N3        -11.6098    4.0828   59.6749 N.2     1  ZINC001076281847   -0.4600
      4 S4        -11.1272    3.0322   58.4340 S.3     1  ZINC001076281847    0.2500
      5 C5        -10.4365    1.8471   59.4725 C.2     1  ZINC001076281847   -0.2100
      6 C6         -9.7752    0.5544   59.0687 C.3     1  ZINC001076281847    0.1200
      7 N7         -9.8582   -0.4053   60.1777 N.3     1  ZINC001076281847   -0.5000
      8 C8         -8.8507   -1.4676   60.0323 C.3     1  ZINC001076281847    0.0300
      9 C9         -9.5236   -2.7822   60.4703 C.3     1  ZINC001076281847   -0.1000
     10 H10        -9.3179   -3.0498   61.5068 H       1  ZINC001076281847    0.1200
     11 C11        -9.1311   -3.8896   59.4573 C.3     1  ZINC001076281847   -0.1300
     12 C12        -9.9898   -3.5099   58.2258 C.3     1  ZINC001076281847    0.1000
     13 N13       -11.2636   -3.0272   58.7889 N.am    1  ZINC001076281847   -0.6000
     14 C14       -12.4523   -3.0281   58.1539 C.2     1  ZINC001076281847    0.5700
     15 O15       -13.4423   -2.6042   58.7169 O.2     1  ZINC001076281847   -0.4900
     16 C16       -12.5521   -3.5456   56.7701 C.ar    1  ZINC001076281847   -0.0800
     17 C17       -11.7212   -3.0558   55.7579 C.ar    1  ZINC001076281847   -0.1800
     18 C18       -11.8477   -3.5672   54.4809 C.ar    1  ZINC001076281847    0.1000
     19 N19       -12.7357   -4.5031   54.2107 N.ar    1  ZINC001076281847   -0.4500
     20 C20       -13.5387   -4.9932   55.1336 C.ar    1  ZINC001076281847    0.1100
     21 C21       -13.4770   -4.5430   56.4399 C.ar    1  ZINC001076281847   -0.0500
     22 Cl22      -14.5389   -5.1956   57.6484 Cl      1  ZINC001076281847   -0.0100
     23 C23       -11.0283   -2.5371   60.1765 C.3     1  ZINC001076281847    0.1000
     24 H24       -11.6729   -3.0483   60.8916 H       1  ZINC001076281847    0.1100
     25 C25       -11.1953   -1.0131   60.2498 C.3     1  ZINC001076281847    0.0200
     26 C26       -10.6069    2.3218   60.7261 C.2     1  ZINC001076281847   -0.1800
     27 H27       -10.6553    4.7856   62.4245 H       1  ZINC001076281847    0.0700
     28 H28       -12.3878    4.8664   62.0244 H       1  ZINC001076281847    0.0800
     29 H29       -11.7366    3.4461   62.8769 H       1  ZINC001076281847    0.0900
     30 H30       -10.2819    0.1447   58.1949 H       1  ZINC001076281847    0.1000
     31 H31        -8.7289    0.7414   58.8275 H       1  ZINC001076281847    0.1000
     32 H32        -8.5330   -1.5400   58.9921 H       1  ZINC001076281847    0.0600
     33 H33        -7.9926   -1.2573   60.6707 H       1  ZINC001076281847    0.0900
     34 H34        -8.0681   -3.8432   59.2210 H       1  ZINC001076281847    0.0900
     35 H35        -9.4029   -4.8761   59.8330 H       1  ZINC001076281847    0.0800
     36 H36        -9.5040   -2.7193   57.6538 H       1  ZINC001076281847    0.0800
     37 H37       -10.1597   -4.3843   57.5976 H       1  ZINC001076281847    0.0800
     38 H38       -10.9913   -2.2887   55.9712 H       1  ZINC001076281847    0.1800
     39 H39       -11.2103   -3.1945   53.6928 H       1  ZINC001076281847    0.1700
     40 H40       -14.2515   -5.7596   54.8672 H       1  ZINC001076281847    0.1700
     41 H41       -11.6912   -0.7410   61.1816 H       1  ZINC001076281847    0.1000
     42 H42       -11.7869   -0.6660   59.4026 H       1  ZINC001076281847    0.0700
     43 H43       -10.2695    1.7875   61.6020 H       1  ZINC001076281847    0.1400
@<TRIPOS>BOND
     1     1     2    1
     2     1    27    1
     3     1    28    1
     4     1    29    1
     5     2    26    1
     6     2     3    2
     7     3     4    1
     8     4     5    1
     9     5     6    1
    10     5    26    2
    11     6     7    1
    12     6    30    1
    13     6    31    1
    14     7    25    1
    15     7     8    1
    16     8     9    1
    17     8    32    1
    18     8    33    1
    19     9    10    1
    20     9    23    1
    21     9    11    1
    22    11    12    1
    23    11    34    1
    24    11    35    1
    25    12    13    1
    26    12    36    1
    27    12    37    1
    28    13    14   am
    29    13    23    1
    30    14    15    2
    31    14    16    1
    32    16    21   ar
    33    16    17   ar
    34    17    18   ar
    35    17    38    1
    36    18    19   ar
    37    18    39    1
    38    19    20   ar
    39    20    21   ar
    40    20    40    1
    41    21    22    1
    42    23    24    1
    43    23    25    1
    44    25    41    1
    45    25    42    1
    46    26    43    1
@<TRIPOS>SUBSTRUCTURE
     1 ZINC001076281847        1 TEMP              0 ****  ****    0 ROOT


##########                                Name:    ZINC000450219577
##########                DOCK_Rotatable_Bonds:                   8
##########                         Heavy_Atoms:                  26
##########                    Molecular_Weight:             353.421
##########                DOCK_Rotatable_Bonds:                   8
##########                       Formal_Charge:          -0.0199997
##########                     HBond_Acceptors:                   6
##########                        HBond_Donors:                   1
##########                         Heavy_Atoms:                  26
##########                          Grid_Score:          -29.547037
##########                     Grid_vdw_energy:          -29.254757
##########                      Grid_es_energy:           -0.292280
##########           Internal_energy_repulsive:           15.720168

@<TRIPOS>MOLECULE
ZINC000450219577
 49 51 1 0 0
SMALL
USER_CHARGES


@<TRIPOS>ATOM
      1 C1        -10.5310   -0.1310   54.0579 C.3     1  ZINC000450219577   -0.1800
      2 C2        -11.8142   -0.9499   53.9034 C.3     1  ZINC000450219577    0.1200
      3 C3        -12.6520   -0.3742   52.7599 C.3     1  ZINC000450219577   -0.1800
      4 C4        -11.4564   -2.4044   53.5913 C.3     1  ZINC000450219577   -0.1400
      5 O5        -12.5762   -0.8931   55.1380 O.3     1  ZINC000450219577   -0.3400
      6 C6        -11.8989   -0.6000   56.2592 C.2     1  ZINC000450219577    0.4700
      7 O7        -11.7761    0.5504   56.6076 O.2     1  ZINC000450219577   -0.5000
      8 C8        -11.2917   -1.7059   57.0835 C.3     1  ZINC000450219577    0.2000
      9 H9        -10.3250   -1.9834   56.6633 H       1  ZINC000450219577    0.1400
     10 N10       -11.1104   -1.2443   58.4620 N.am    1  ZINC000450219577   -0.7100
     11 C11        -9.8937   -1.3046   59.0385 C.2     1  ZINC000450219577    0.5800
     12 O12        -8.9463   -1.7406   58.4140 O.2     1  ZINC000450219577   -0.5200
     13 C13        -9.7112   -0.8405   60.4301 C.ar    1  ZINC000450219577   -0.2500
     14 C14        -9.0649   -1.6429   61.3772 C.ar    1  ZINC000450219577    0.1900
     15 N15        -8.9230   -1.1884   62.6098 N.ar    1  ZINC000450219577   -0.5100
     16 C16        -9.3795    0.0006   62.9514 C.ar    1  ZINC000450219577    0.3800
     17 C17        -9.1930    0.4739   64.3698 C.3     1  ZINC000450219577   -0.1100
     18 C18        -9.2241    1.9829   64.6210 C.3     1  ZINC000450219577   -0.1500
     19 C19       -10.3979    1.1088   65.0671 C.3     1  ZINC000450219577   -0.1500
     20 N20        -9.9938    0.7890   62.0910 N.ar    1  ZINC000450219577   -0.5200
     21 C21       -10.1744    0.4161   60.8362 C.ar    1  ZINC000450219577    0.2200
     22 C22       -12.2074   -2.9027   57.0708 C.ar    1  ZINC000450219577   -0.1100
     23 C23       -11.6803   -4.1751   56.9527 C.ar    1  ZINC000450219577   -0.1000
     24 C24       -12.5202   -5.2729   56.9413 C.ar    1  ZINC000450219577   -0.1200
     25 C25       -13.8873   -5.0983   57.0482 C.ar    1  ZINC000450219577   -0.1100
     26 C26       -14.4144   -3.8260   57.1673 C.ar    1  ZINC000450219577   -0.1200
     27 C27       -13.5742   -2.7284   57.1831 C.ar    1  ZINC000450219577   -0.0800
     28 H28       -10.7858    0.9052   54.2802 H       1  ZINC000450219577    0.0800
     29 H29        -9.9341   -0.5412   54.8724 H       1  ZINC000450219577    0.0600
     30 H30        -9.9589   -0.1737   53.1311 H       1  ZINC000450219577    0.0700
     31 H31       -12.0799   -0.4169   51.8331 H       1  ZINC000450219577    0.0700
     32 H32       -13.5661   -0.9576   52.6498 H       1  ZINC000450219577    0.0600
     33 H33       -12.9068    0.6621   52.9822 H       1  ZINC000450219577    0.0800
     34 H34       -10.8595   -2.8146   54.4059 H       1  ZINC000450219577    0.0700
     35 H35       -12.3705   -2.9878   53.4812 H       1  ZINC000450219577    0.0700
     36 H36       -10.8843   -2.4470   52.6645 H       1  ZINC000450219577    0.0800
     37 H37       -11.8661   -0.8952   58.9599 H       1  ZINC000450219577    0.4100
     38 H38        -8.6886   -2.6180   61.1051 H       1  ZINC000450219577    0.1700
     39 H39        -8.5161   -0.1243   64.9799 H       1  ZINC000450219577    0.1300
     40 H40        -8.5674    2.3776   65.3964 H       1  ZINC000450219577    0.1000
     41 H41        -9.3794    2.6332   63.7603 H       1  ZINC000450219577    0.1100
     42 H42       -11.3256    1.1841   64.4998 H       1  ZINC000450219577    0.1000
     43 H43       -10.5136    0.9285   66.1358 H       1  ZINC000450219577    0.1100
     44 H44       -10.6785    1.0672   60.1373 H       1  ZINC000450219577    0.1800
     45 H45       -10.6121   -4.3115   56.8691 H       1  ZINC000450219577    0.1200
     46 H46       -12.1084   -6.2669   56.8482 H       1  ZINC000450219577    0.1200
     47 H47       -14.5436   -5.9560   57.0385 H       1  ZINC000450219577    0.1300
     48 H48       -15.4825   -3.6897   57.2506 H       1  ZINC000450219577    0.1300
     49 H49       -13.9859   -1.7344   57.2761 H       1  ZINC000450219577    0.1300
@<TRIPOS>BOND
     1     1     2    1
     2     1    28    1
     3     1    29    1
     4     1    30    1
     5     2     3    1
     6     2     4    1
     7     2     5    1
     8     3    31    1
     9     3    32    1
    10     3    33    1
    11     4    34    1
    12     4    35    1
    13     4    36    1
    14     5     6    1
    15     6     7    2
    16     6     8    1
    17     8     9    1
    18     8    10    1
    19     8    22    1
    20    10    11   am
    21    10    37    1
    22    11    12    2
    23    11    13    1
    24    13    21   ar
    25    13    14   ar
    26    14    15   ar
    27    14    38    1
    28    15    16   ar
    29    16    17    1
    30    16    20   ar
    31    17    19    1
    32    17    18    1
    33    17    39    1
    34    18    19    1
    35    18    40    1
    36    18    41    1
    37    19    42    1
    38    19    43    1
    39    20    21   ar
    40    21    44    1
    41    22    27   ar
    42    22    23   ar
    43    23    24   ar
    44    23    45    1
    45    24    25   ar
    46    24    46    1
    47    25    26   ar
    48    25    47    1
    49    26    27   ar
    50    26    48    1
    51    27    49    1
@<TRIPOS>SUBSTRUCTURE
     1 ZINC000450219577        1 TEMP              0 ****  ****    0 ROOT


##########                                Name:    ZINC001039666729
##########                DOCK_Rotatable_Bonds:                   3
##########                         Heavy_Atoms:                  25
##########                    Molecular_Weight:             344.376
##########                DOCK_Rotatable_Bonds:                   3
##########                       Formal_Charge:          -0.0199998
##########                     HBond_Acceptors:                  10
##########                        HBond_Donors:                   2
##########                         Heavy_Atoms:                  25
##########                          Grid_Score:          -29.540216
##########                     Grid_vdw_energy:          -28.828300
##########                      Grid_es_energy:           -0.711916
##########           Internal_energy_repulsive:           31.109486

@<TRIPOS>MOLECULE
ZINC001039666729
 45 47 1 0 0
SMALL
USER_CHARGES


@<TRIPOS>ATOM
      1 C1        -10.2455   -1.4337   52.3583 C.3     1  ZINC001039666729   -0.1100
      2 C2        -11.1685   -2.2500   53.2260 C.ar    1  ZINC001039666729    0.2200
      3 C3        -11.4919   -3.5513   52.8758 C.ar    1  ZINC001039666729   -0.3000
      4 C4        -12.3445   -4.2674   53.7016 C.ar    1  ZINC001039666729    0.1900
      5 N5        -12.8211   -3.6909   54.7925 N.ar    1  ZINC001039666729   -0.5800
      6 C6        -12.4920   -2.4444   55.0988 C.ar    1  ZINC001039666729    0.6000
      7 N7        -13.0087   -1.8723   56.2483 N.pl3   1  ZINC001039666729   -0.5900
      8 C8        -14.2858   -2.3084   56.8912 C.3     1  ZINC001039666729    0.1200
      9 C9        -13.9899   -3.5604   57.7199 C.3     1  ZINC001039666729    0.0900
     10 N10       -13.0243   -3.1981   58.7872 N.am    1  ZINC001039666729   -0.7400
     11 C11       -11.7197   -3.5008   58.4982 C.2     1  ZINC001039666729    0.5200
     12 O12       -11.4228   -4.0215   57.4439 O.2     1  ZINC001039666729   -0.5200
     13 C13       -10.6619   -3.1718   59.5199 C.3     1  ZINC001039666729   -0.1500
     14 C14        -9.6625   -2.1814   58.9187 C.3     1  ZINC001039666729    0.1100
     15 N15       -10.4107   -0.9841   58.4554 N.am    1  ZINC001039666729   -0.6100
     16 C16       -10.6706    0.0671   59.2578 C.2     1  ZINC001039666729    0.6100
     17 O17       -11.2886    1.0216   58.8282 O.2     1  ZINC001039666729   -0.5200
     18 C18       -10.2040    0.0593   60.6603 C.2     1  ZINC001039666729   -0.0400
     19 N19       -10.0081   -0.9976   61.4338 N.2     1  ZINC001039666729   -0.2500
     20 N20        -9.6013   -0.5921   62.5843 N.pl3   1  ZINC001039666729   -0.2300
     21 N21        -9.5150    0.6897   62.6194 N.2     1  ZINC001039666729   -0.2800
     22 C22        -9.8684    1.1747   61.4534 C.2     1  ZINC001039666729    0.0400
     23 C23       -10.8492   -1.0382   57.0366 C.3     1  ZINC001039666729    0.1100
     24 C24       -12.3481   -0.7538   56.9881 C.3     1  ZINC001039666729    0.1300
     25 N25       -11.6756   -1.7348   54.3340 N.ar    1  ZINC001039666729   -0.5700
     26 H26        -9.2154   -1.5851   52.6806 H       1  ZINC001039666729    0.0800
     27 H27       -10.3511   -1.7474   51.3198 H       1  ZINC001039666729    0.0800
     28 H28       -10.5025   -0.3781   52.4469 H       1  ZINC001039666729    0.0800
     29 H29       -11.0887   -3.9976   51.9788 H       1  ZINC001039666729    0.1400
     30 H30       -12.6166   -5.2835   53.4571 H       1  ZINC001039666729    0.1600
     31 H31       -14.6616   -1.5170   57.5397 H       1  ZINC001039666729    0.0800
     32 H32       -15.0248   -2.5399   56.1241 H       1  ZINC001039666729    0.0900
     33 H33       -14.9118   -3.9298   58.1689 H       1  ZINC001039666729    0.0800
     34 H34       -13.5583   -4.3304   57.0804 H       1  ZINC001039666729    0.1000
     35 H35       -13.2945   -2.7815   59.6206 H       1  ZINC001039666729    0.4100
     36 H36       -11.1306   -2.7271   60.3978 H       1  ZINC001039666729    0.0800
     37 H37       -10.1401   -4.0839   59.8094 H       1  ZINC001039666729    0.1100
     38 H38        -8.9345   -1.8893   59.6754 H       1  ZINC001039666729    0.1100
     39 H39        -9.1502   -2.6435   58.0747 H       1  ZINC001039666729    0.0900
     40 H40        -9.3881   -1.1769   63.3282 H       1  ZINC001039666729    0.4700
     41 H41        -9.9023    2.2145   61.1633 H       1  ZINC001039666729    0.2100
     42 H42       -10.3112   -0.2878   56.4572 H       1  ZINC001039666729    0.0800
     43 H43       -10.6511   -2.0293   56.6286 H       1  ZINC001039666729    0.1200
     44 H44       -12.5286    0.1856   56.4657 H       1  ZINC001039666729    0.0700
     45 H45       -12.7454   -0.6954   58.0015 H       1  ZINC001039666729    0.0900
@<TRIPOS>BOND
     1     1     2    1
     2     1    26    1
     3     1    27    1
     4     1    28    1
     5     2    25   ar
     6     2     3   ar
     7     3     4   ar
     8     3    29    1
     9     4     5   ar
    10     4    30    1
    11     5     6   ar
    12     6     7    1
    13     6    25   ar
    14     7    24    1
    15     7     8    1
    16     8     9    1
    17     8    31    1
    18     8    32    1
    19     9    10    1
    20     9    33    1
    21     9    34    1
    22    10    11   am
    23    10    35    1
    24    11    12    2
    25    11    13    1
    26    13    14    1
    27    13    36    1
    28    13    37    1
    29    14    15    1
    30    14    38    1
    31    14    39    1
    32    15    16   am
    33    15    23    1
    34    16    17    2
    35    16    18    1
    36    18    22    1
    37    18    19    2
    38    19    20    1
    39    20    21    1
    40    20    40    1
    41    21    22    2
    42    22    41    1
    43    23    24    1
    44    23    42    1
    45    23    43    1
    46    24    44    1
    47    24    45    1
@<TRIPOS>SUBSTRUCTURE
     1 ZINC001039666729        1 TEMP              0 ****  ****    0 ROOT


##########                                Name:    ZINC000426607143
##########                DOCK_Rotatable_Bonds:                   3
##########                         Heavy_Atoms:                  25
##########                    Molecular_Weight:             419.302
##########                DOCK_Rotatable_Bonds:                   3
##########                       Formal_Charge:         1.49012e-07
##########                     HBond_Acceptors:                   7
##########                        HBond_Donors:                   0
##########                         Heavy_Atoms:                  25
##########                          Grid_Score:          -29.533270
##########                     Grid_vdw_energy:          -29.003260
##########                      Grid_es_energy:           -0.530011
##########           Internal_energy_repulsive:            6.840795

@<TRIPOS>MOLECULE
ZINC000426607143
 40 43 1 0 0
SMALL
USER_CHARGES


@<TRIPOS>ATOM
      1 C1        -13.7209    0.8512   62.5403 C.3     1  ZINC000426607143   -0.0900
      2 C2        -12.2451    0.5696   62.4218 C.2     1  ZINC000426607143    0.1600
      3 N3        -11.3573    1.3771   62.9157 N.2     1  ZINC000426607143   -0.4600
      4 S4         -9.8299    0.7213   62.5822 S.3     1  ZINC000426607143    0.2900
      5 C5        -10.4119   -0.6723   61.7584 C.2     1  ZINC000426607143   -0.1300
      6 C6         -9.5921   -1.7777   61.1440 C.3     1  ZINC000426607143   -0.0800
      7 C7        -11.7710   -0.5690   61.7840 C.2     1  ZINC000426607143   -0.1200
      8 C8        -12.6666   -1.5817   61.1741 C.2     1  ZINC000426607143    0.2500
      9 N9        -13.4378   -2.4228   61.8140 N.2     1  ZINC000426607143   -0.3700
     10 O10       -14.0430   -3.1165   61.0244 O.3     1  ZINC000426607143    0.0900
     11 C11       -13.7127   -2.7817   59.7733 C.2     1  ZINC000426607143    0.2000
     12 C12       -14.2447   -3.4065   58.5094 C.3     1  ZINC000426607143   -0.0300
     13 H13       -14.7418   -4.3507   58.7316 H       1  ZINC000426607143    0.1600
     14 C14       -15.2160   -2.4387   57.7945 C.3     1  ZINC000426607143   -0.1200
     15 C15       -14.8980   -2.7142   56.3081 C.3     1  ZINC000426607143    0.1000
     16 N16       -13.5184   -3.2146   56.2890 N.am    1  ZINC000426607143   -0.5800
     17 C17       -12.7134   -3.2676   55.1454 C.ar    1  ZINC000426607143    0.1700
     18 C18       -12.6982   -4.4104   54.3577 C.ar    1  ZINC000426607143   -0.1000
     19 C19       -11.9025   -4.4598   53.2293 C.ar    1  ZINC000426607143   -0.1000
     20 C20       -11.1211   -3.3726   52.8843 C.ar    1  ZINC000426607143   -0.1000
     21 C21       -11.1334   -2.2322   53.6665 C.ar    1  ZINC000426607143   -0.0900
     22 C22       -11.9316   -2.1740   54.7927 C.ar    1  ZINC000426607143   -0.0800
     23 Br23      -11.9479   -0.6144   55.8620 Br      1  ZINC000426607143   -0.0400
     24 C24       -13.1268   -3.6185   57.5124 C.2     1  ZINC000426607143    0.5300
     25 O25       -12.0366   -4.0804   57.7755 O.2     1  ZINC000426607143   -0.4900
     26 N26       -12.8436   -1.8050   59.8519 N.2     1  ZINC000426607143   -0.4600
     27 H27       -14.1024    0.4089   63.4606 H       1  ZINC000426607143    0.0900
     28 H28       -13.8848    1.9287   62.5599 H       1  ZINC000426607143    0.0800
     29 H29       -14.2429    0.4198   61.6862 H       1  ZINC000426607143    0.1100
     30 H30        -8.5326   -1.5713   61.2952 H       1  ZINC000426607143    0.0800
     31 H31        -9.8487   -2.7258   61.6165 H       1  ZINC000426607143    0.0900
     32 H32        -9.8024   -1.8352   60.0760 H       1  ZINC000426607143    0.0900
     33 H33       -16.2524   -2.6861   58.0241 H       1  ZINC000426607143    0.1100
     34 H34       -14.9968   -1.4032   58.0549 H       1  ZINC000426607143    0.1000
     35 H35       -15.5780   -3.4676   55.9103 H       1  ZINC000426607143    0.0900
     36 H36       -14.9735   -1.7937   55.7293 H       1  ZINC000426607143    0.0900
     37 H37       -13.3077   -5.2604   54.6267 H       1  ZINC000426607143    0.1400
     38 H38       -11.8905   -5.3488   52.6163 H       1  ZINC000426607143    0.1400
     39 H39       -10.4994   -3.4143   52.0021 H       1  ZINC000426607143    0.1400
     40 H40       -10.5218   -1.3847   53.3942 H       1  ZINC000426607143    0.1400
@<TRIPOS>BOND
     1     1     2    1
     2     1    27    1
     3     1    28    1
     4     1    29    1
     5     2     7    1
     6     2     3    2
     7     3     4    1
     8     4     5    1
     9     5     6    1
    10     5     7    2
    11     6    30    1
    12     6    31    1
    13     6    32    1
    14     7     8    1
    15     8    26    1
    16     8     9    2
    17     9    10    1
    18    10    11    1
    19    11    12    1
    20    11    26    2
    21    12    13    1
    22    12    24    1
    23    12    14    1
    24    14    15    1
    25    14    33    1
    26    14    34    1
    27    15    16    1
    28    15    35    1
    29    15    36    1
    30    16    17    1
    31    16    24   am
    32    17    22   ar
    33    17    18   ar
    34    18    19   ar
    35    18    37    1
    36    19    20   ar
    37    19    38    1
    38    20    21   ar
    39    20    39    1
    40    21    22   ar
    41    21    40    1
    42    22    23    1
    43    24    25    2
@<TRIPOS>SUBSTRUCTURE
     1 ZINC000426607143        1 TEMP              0 ****  ****    0 ROOT


##########                                Name:    ZINC001231746020
##########                DOCK_Rotatable_Bonds:                   3
##########                         Heavy_Atoms:                  19
##########                    Molecular_Weight:             348.667
##########                DOCK_Rotatable_Bonds:                   3
##########                       Formal_Charge:          -0.0399997
##########                     HBond_Acceptors:                   4
##########                        HBond_Donors:                   2
##########                         Heavy_Atoms:                  19
##########                          Grid_Score:          -29.512606
##########                     Grid_vdw_energy:          -26.573029
##########                      Grid_es_energy:           -2.939577
##########           Internal_energy_repulsive:           13.149866

@<TRIPOS>MOLECULE
ZINC001231746020
 38 39 1 0 0
SMALL
USER_CHARGES


@<TRIPOS>ATOM
      1 C1        -10.1709    3.3575   64.4472 C.3     1  ZINC001231746020   -0.1500
      2 C2        -10.0894    2.0943   63.5878 C.3     1  ZINC001231746020   -0.0900
      3 H3         -9.3499    2.2359   62.7995 H       1  ZINC001231746020    0.0800
      4 C4         -9.6923    0.9241   64.4475 C.3     1  ZINC001231746020   -0.1400
      5 C5         -8.8662   -0.1365   63.6976 C.3     1  ZINC001231746020   -0.0100
      6 N6         -9.3762   -0.4329   62.3417 N.4     1  ZINC001231746020   -0.3800
      7 H7         -9.0805    0.2984   61.7125 H       1  ZINC001231746020    0.4100
      8 C8         -8.8120   -1.7109   61.8876 C.3     1  ZINC001231746020    0.0700
      9 C9         -9.2479   -1.9769   60.4697 C.ar    1  ZINC001231746020   -0.3100
     10 C10        -9.5631   -3.2637   60.0748 C.ar    1  ZINC001231746020   -0.0300
     11 C11        -9.9637   -3.5106   58.7746 C.ar    1  ZINC001231746020   -0.1600
     12 Cl12      -10.3593   -5.1267   58.2794 Cl      1  ZINC001231746020   -0.0800
     13 C13       -10.0488   -2.4652   57.8658 C.ar    1  ZINC001231746020    0.3100
     14 O14       -10.4429   -2.7049   56.5870 O.3     1  ZINC001231746020   -0.6300
     15 C15        -9.7313   -1.1745   58.2651 C.ar    1  ZINC001231746020   -0.2100
     16 Br16       -9.8456    0.2532   57.0304 Br      1  ZINC001231746020   -0.0600
     17 C17        -9.3372   -0.9326   59.5677 C.ar    1  ZINC001231746020   -0.0200
     18 C18       -10.8162   -0.5193   62.3147 C.3     1  ZINC001231746020   -0.0200
     19 C19       -11.3624    0.8457   61.8658 C.3     1  ZINC001231746020   -0.1800
     20 C20       -11.4748    1.8048   62.9577 C.3     1  ZINC001231746020    0.1000
     21 H21       -11.8954    2.7348   62.5753 H       1  ZINC001231746020    0.0700
     22 O22       -12.3446    1.2748   63.9601 O.3     1  ZINC001231746020   -0.5600
     23 H23        -9.1983    3.5531   64.8988 H       1  ZINC001231746020    0.0600
     24 H24       -10.9140    3.2156   65.2319 H       1  ZINC001231746020    0.0700
     25 H25       -10.4585    4.2036   63.8230 H       1  ZINC001231746020    0.0600
     26 H26        -9.1057    1.2924   65.2891 H       1  ZINC001231746020    0.1000
     27 H27       -10.5957    0.4516   64.8329 H       1  ZINC001231746020    0.1000
     28 H28        -7.8384    0.2169   63.6141 H       1  ZINC001231746020    0.1200
     29 H29        -8.8693   -1.0574   64.2805 H       1  ZINC001231746020    0.1200
     30 H30        -7.7238   -1.6634   61.9303 H       1  ZINC001231746020    0.1200
     31 H31        -9.1661   -2.5144   62.5334 H       1  ZINC001231746020    0.1200
     32 H32        -9.4966   -4.0768   60.7825 H       1  ZINC001231746020    0.1100
     33 H33        -9.0950    0.0724   59.8803 H       1  ZINC001231746020    0.1100
     34 H34       -11.1262   -1.2908   61.6099 H       1  ZINC001231746020    0.1400
     35 H35       -11.1901   -0.7578   63.3104 H       1  ZINC001231746020    0.1300
     36 H36       -10.6978    1.2563   61.1057 H       1  ZINC001231746020    0.0900
     37 H37       -12.3492    0.7008   61.4260 H       1  ZINC001231746020    0.1100
     38 H38       -12.0391    0.4424   64.3458 H       1  ZINC001231746020    0.3900
@<TRIPOS>BOND
     1     1     2    1
     2     1    23    1
     3     1    24    1
     4     1    25    1
     5     2     3    1
     6     2    20    1
     7     2     4    1
     8     4     5    1
     9     4    26    1
    10     4    27    1
    11     5     6    1
    12     5    28    1
    13     5    29    1
    14     6     7    1
    15     6     8    1
    16     6    18    1
    17     8     9    1
    18     8    30    1
    19     8    31    1
    20     9    17   ar
    21     9    10   ar
    22    10    11   ar
    23    10    32    1
    24    11    12    1
    25    11    13   ar
    26    13    14    1
    27    13    15   ar
    28    15    16    1
    29    15    17   ar
    30    17    33    1
    31    18    19    1
    32    18    34    1
    33    18    35    1
    34    19    20    1
    35    19    36    1
    36    19    37    1
    37    20    21    1
    38    20    22    1
    39    22    38    1
@<TRIPOS>SUBSTRUCTURE
     1 ZINC001231746020        1 TEMP              0 ****  ****    0 ROOT


##########                                Name:    ZINC000444205493
##########                DOCK_Rotatable_Bonds:                   4
##########                         Heavy_Atoms:                  24
##########                    Molecular_Weight:             415.351
##########                DOCK_Rotatable_Bonds:                   4
##########                       Formal_Charge:         -0.00999995
##########                     HBond_Acceptors:                   6
##########                        HBond_Donors:                   1
##########                         Heavy_Atoms:                  24
##########                          Grid_Score:          -29.484278
##########                     Grid_vdw_energy:          -28.797634
##########                      Grid_es_energy:           -0.686643
##########           Internal_energy_repulsive:            4.033260

@<TRIPOS>MOLECULE
ZINC000444205493
 47 49 1 0 0
SMALL
USER_CHARGES


@<TRIPOS>ATOM
      1 C1        -14.7908   -1.1871   50.1984 C.3     1  ZINC000444205493   -0.1700
      2 C2        -14.3726   -1.8706   51.4747 C.2     1  ZINC000444205493    0.5100
      3 O3        -14.7234   -3.0105   51.6951 O.2     1  ZINC000444205493   -0.5100
      4 N4        -13.6089   -1.2152   52.3712 N.am    1  ZINC000444205493   -0.6800
      5 C5        -13.2205   -1.8500   53.5565 C.ar    1  ZINC000444205493    0.2300
      6 C6        -14.0897   -1.8965   54.6378 C.ar    1  ZINC000444205493   -0.1400
      7 C7        -13.7037   -2.5243   55.8063 C.ar    1  ZINC000444205493    0.0200
      8 C8        -12.4528   -3.1058   55.9001 C.ar    1  ZINC000444205493   -0.6900
      9 S9        -11.9646   -3.9049   57.3926 S.o2    1  ZINC000444205493    2.7100
     10 O10       -13.1617   -4.3234   58.0339 O.2     1  ZINC000444205493   -0.9500
     11 O11       -10.9158   -4.7985   57.0448 O.2     1  ZINC000444205493   -0.9500
     12 N12       -11.2903   -2.7499   58.3692 N.am    1  ZINC000444205493   -1.0100
     13 C13       -10.1056   -1.9332   58.0440 C.3     1  ZINC000444205493    0.1200
     14 C14       -10.2470   -0.6582   58.9157 C.3     1  ZINC000444205493   -0.1200
     15 C15       -10.8691   -1.2340   60.2025 C.3     1  ZINC000444205493   -0.0700
     16 C16        -9.7826   -1.7595   61.1464 C.3     1  ZINC000444205493   -0.1100
     17 C17        -9.5916   -0.6111   62.1717 C.3     1  ZINC000444205493   -0.1200
     18 C18       -11.0334   -0.0758   62.3637 C.3     1  ZINC000444205493   -0.1000
     19 H19       -11.5818   -0.7014   63.0680 H       1  ZINC000444205493    0.0700
     20 C20       -11.0057    1.3754   62.8476 C.3     1  ZINC000444205493   -0.1500
     21 C21       -11.6632   -0.1672   60.9553 C.3     1  ZINC000444205493   -0.1100
     22 C22       -11.7776   -2.3628   59.7042 C.3     1  ZINC000444205493    0.1300
     23 C23       -11.5842   -3.0621   54.8249 C.ar    1  ZINC000444205493    0.0300
     24 C24       -11.9660   -2.4404   53.6516 C.ar    1  ZINC000444205493   -0.1500
     25 Br25      -10.7777   -2.3808   52.1817 Br      1  ZINC000444205493   -0.0300
     26 H26       -15.3993   -1.8685   49.6039 H       1  ZINC000444205493    0.1000
     27 H27       -15.3711   -0.2957   50.4369 H       1  ZINC000444205493    0.1000
     28 H28       -13.9045   -0.9027   49.6313 H       1  ZINC000444205493    0.1000
     29 H29       -13.3285   -0.3035   52.1949 H       1  ZINC000444205493    0.4200
     30 H30       -15.0668   -1.4419   54.5658 H       1  ZINC000444205493    0.1600
     31 H31       -14.3798   -2.5606   56.6478 H       1  ZINC000444205493    0.1500
     32 H32        -9.1927   -2.4699   58.3026 H       1  ZINC000444205493    0.0800
     33 H33       -10.1051   -1.6709   56.9860 H       1  ZINC000444205493    0.0800
     34 H34        -9.2729   -0.2126   59.1178 H       1  ZINC000444205493    0.0900
     35 H35       -10.9158    0.0637   58.4471 H       1  ZINC000444205493    0.0800
     36 H36       -10.1178   -2.6677   61.6475 H       1  ZINC000444205493    0.0700
     37 H37        -8.8572   -1.9423   60.6002 H       1  ZINC000444205493    0.0700
     38 H38        -9.1942   -0.9948   63.1113 H       1  ZINC000444205493    0.0700
     39 H39        -8.9429    0.1649   61.7653 H       1  ZINC000444205493    0.0700
     40 H40       -10.4708    1.9897   62.1234 H       1  ZINC000444205493    0.0500
     41 H41       -12.0265    1.7430   62.9524 H       1  ZINC000444205493    0.0500
     42 H42       -10.5002    1.4273   63.8120 H       1  ZINC000444205493    0.0500
     43 H43       -11.5800    0.7921   60.4445 H       1  ZINC000444205493    0.0700
     44 H44       -12.7097   -0.4626   61.0310 H       1  ZINC000444205493    0.0700
     45 H45       -12.8076   -2.0117   59.6428 H       1  ZINC000444205493    0.0700
     46 H46       -11.7147   -3.2164   60.3792 H       1  ZINC000444205493    0.0800
     47 H47       -10.6079   -3.5175   54.9012 H       1  ZINC000444205493    0.1500
@<TRIPOS>BOND
     1     1     2    1
     2     1    26    1
     3     1    27    1
     4     1    28    1
     5     2     3    2
     6     2     4   am
     7     4     5    1
     8     4    29    1
     9     5    24   ar
    10     5     6   ar
    11     6     7   ar
    12     6    30    1
    13     7     8   ar
    14     7    31    1
    15     8     9    1
    16     8    23   ar
    17     9    10    2
    18     9    11    2
    19     9    12   am
    20    12    22    1
    21    12    13    1
    22    13    14    1
    23    13    32    1
    24    13    33    1
    25    14    15    1
    26    14    34    1
    27    14    35    1
    28    15    21    1
    29    15    16    1
    30    15    22    1
    31    16    17    1
    32    16    36    1
    33    16    37    1
    34    17    18    1
    35    17    38    1
    36    17    39    1
    37    18    19    1
    38    18    20    1
    39    18    21    1
    40    20    40    1
    41    20    41    1
    42    20    42    1
    43    21    43    1
    44    21    44    1
    45    22    45    1
    46    22    46    1
    47    23    24   ar
    48    23    47    1
    49    24    25    1
@<TRIPOS>SUBSTRUCTURE
     1 ZINC000444205493        1 TEMP              0 ****  ****    0 ROOT


##########                                Name:    ZINC000866717058
##########                DOCK_Rotatable_Bonds:                   7
##########                         Heavy_Atoms:                  25
##########                    Molecular_Weight:             380.388
##########                DOCK_Rotatable_Bonds:                   7
##########                       Formal_Charge:                0.04
##########                     HBond_Acceptors:                  10
##########                        HBond_Donors:                   1
##########                         Heavy_Atoms:                  25
##########                          Grid_Score:          -29.478092
##########                     Grid_vdw_energy:          -28.551809
##########                      Grid_es_energy:           -0.926283
##########           Internal_energy_repulsive:            7.479998

@<TRIPOS>MOLECULE
ZINC000866717058
 44 45 1 0 0
SMALL
USER_CHARGES


@<TRIPOS>ATOM
      1 C1        -11.1090   -0.1051   53.9168 C.3     1  ZINC000866717058   -0.1100
      2 C2        -11.4406   -1.2805   54.7997 C.ar    1  ZINC000866717058    0.2400
      3 N3        -11.1937   -1.2159   56.0911 N.ar    1  ZINC000866717058   -0.5500
      4 C4        -11.4682   -2.2237   56.9053 C.ar    1  ZINC000866717058    0.3500
      5 O5        -11.1954   -2.1074   58.2275 O.3     1  ZINC000866717058   -0.2800
      6 C6         -9.8297   -2.2506   58.6230 C.3     1  ZINC000866717058    0.0500
      7 H7         -9.2120   -2.4220   57.7414 H       1  ZINC000866717058    0.1300
      8 C8         -9.3670   -0.9749   59.3298 C.3     1  ZINC000866717058   -0.1700
      9 C9         -9.6972   -3.4391   59.5774 C.3     1  ZINC000866717058    0.4600
     10 F10        -8.3736   -3.5367   60.0197 F       1  ZINC000866717058   -0.1700
     11 F11       -10.5433   -3.2519   60.6757 F       1  ZINC000866717058   -0.1700
     12 F12       -10.0535   -4.6157   58.9094 F       1  ZINC000866717058   -0.1700
     13 C13       -12.0332   -3.4000   56.4228 C.ar    1  ZINC000866717058   -0.1900
     14 C14       -12.3093   -3.5126   55.0754 C.ar    1  ZINC000866717058    0.0000
     15 C15       -12.0117   -2.4250   54.2414 C.ar    1  ZINC000866717058   -0.2300
     16 C16       -12.2880   -2.4941   52.7930 C.2     1  ZINC000866717058    0.5800
     17 O17       -11.5277   -3.0930   52.0570 O.2     1  ZINC000866717058   -0.5200
     18 N18       -13.3829   -1.8932   52.2863 N.am    1  ZINC000866717058   -0.7400
     19 C19       -13.6561   -1.9604   50.8486 C.3     1  ZINC000866717058    0.1400
     20 C20       -14.4820   -0.7427   50.4291 C.3     1  ZINC000866717058   -0.5700
     21 H21       -15.4538   -0.7475   50.9227 H       1  ZINC000866717058    0.1500
     22 C22       -13.7174    0.5718   50.7322 C.3     1  ZINC000866717058   -0.1100
     23 C23       -14.3621    1.6663   49.8638 C.3     1  ZINC000866717058   -0.1200
     24 C24       -14.5141    1.1312   48.4260 C.3     1  ZINC000866717058   -0.5900
     25 S25       -14.6778   -0.6856   48.6077 S.o2    1  ZINC000866717058    2.3700
     26 O26       -13.5636   -1.3221   47.9974 O.2     1  ZINC000866717058   -0.9200
     27 O27       -15.9983   -1.0767   48.2576 O.2     1  ZINC000866717058   -0.9300
     28 H28       -12.0022    0.5020   53.7695 H       1  ZINC000866717058    0.0900
     29 H29       -10.3340    0.4977   54.3901 H       1  ZINC000866717058    0.0700
     30 H30       -10.7512   -0.4648   52.9521 H       1  ZINC000866717058    0.1100
     31 H31        -8.3253   -1.0842   59.6316 H       1  ZINC000866717058    0.0900
     32 H32        -9.4613   -0.1283   58.6499 H       1  ZINC000866717058    0.0900
     33 H33        -9.9845   -0.8037   60.2114 H       1  ZINC000866717058    0.0800
     34 H34       -12.2529   -4.2162   57.0951 H       1  ZINC000866717058    0.1600
     35 H35       -12.7474   -4.4143   54.6737 H       1  ZINC000866717058    0.1500
     36 H36       -13.9900   -1.4164   52.8736 H       1  ZINC000866717058    0.4000
     37 H37       -12.7144   -1.9672   50.2998 H       1  ZINC000866717058    0.1000
     38 H38       -14.2126   -2.8708   50.6266 H       1  ZINC000866717058    0.1000
     39 H39       -13.8160    0.8261   51.7875 H       1  ZINC000866717058    0.1100
     40 H40       -12.6650    0.4601   50.4715 H       1  ZINC000866717058    0.0900
     41 H41       -15.3428    1.9222   50.2651 H       1  ZINC000866717058    0.0900
     42 H42       -13.7274    2.5524   49.8599 H       1  ZINC000866717058    0.1000
     43 H43       -15.4089    1.5447   47.9607 H       1  ZINC000866717058    0.1400
     44 H44       -13.6315    1.3768   47.8355 H       1  ZINC000866717058    0.1400
@<TRIPOS>BOND
     1     1     2    1
     2     1    28    1
     3     1    29    1
     4     1    30    1
     5     2    15   ar
     6     2     3   ar
     7     3     4   ar
     8     4     5    1
     9     4    13   ar
    10     5     6    1
    11     6     7    1
    12     6     8    1
    13     6     9    1
    14     8    31    1
    15     8    32    1
    16     8    33    1
    17     9    10    1
    18     9    11    1
    19     9    12    1
    20    13    14   ar
    21    13    34    1
    22    14    15   ar
    23    14    35    1
    24    15    16    1
    25    16    17    2
    26    16    18   am
    27    18    19    1
    28    18    36    1
    29    19    20    1
    30    19    37    1
    31    19    38    1
    32    20    21    1
    33    20    25    1
    34    20    22    1
    35    22    23    1
    36    22    39    1
    37    22    40    1
    38    23    24    1
    39    23    41    1
    40    23    42    1
    41    24    25    1
    42    24    43    1
    43    24    44    1
    44    25    26    2
    45    25    27    2
@<TRIPOS>SUBSTRUCTURE
     1 ZINC000866717058        1 TEMP              0 ****  ****    0 ROOT


##########                                Name:    ZINC001248546333
##########                DOCK_Rotatable_Bonds:                   6
##########                         Heavy_Atoms:                  27
##########                    Molecular_Weight:             378.397
##########                DOCK_Rotatable_Bonds:                   6
##########                       Formal_Charge:         3.94881e-07
##########                     HBond_Acceptors:                   8
##########                        HBond_Donors:                   1
##########                         Heavy_Atoms:                  27
##########                          Grid_Score:          -29.468718
##########                     Grid_vdw_energy:          -28.264368
##########                      Grid_es_energy:           -1.204350
##########           Internal_energy_repulsive:           29.477512

@<TRIPOS>MOLECULE
ZINC001248546333
 48 50 1 0 0
SMALL
USER_CHARGES


@<TRIPOS>ATOM
      1 C1         -1.2886    5.1406   57.9353 C.3     1  ZINC001248546333   -0.1200
      2 C2         -2.1653    4.7745   56.7654 C.ar    1  ZINC001248546333   -0.0800
      3 C3         -1.6990    4.9433   55.4742 C.ar    1  ZINC001248546333   -0.1200
      4 C4         -2.4977    4.6096   54.3947 C.ar    1  ZINC001248546333   -0.1100
      5 C5         -3.7653    4.1056   54.6005 C.ar    1  ZINC001248546333   -0.1100
      6 C6         -4.2414    3.9323   55.9007 C.ar    1  ZINC001248546333   -0.0600
      7 C7         -5.5986    3.3927   56.1284 C.2     1  ZINC001248546333   -0.0600
      8 C8         -6.3193    3.0861   55.0770 C.2     1  ZINC001248546333   -0.1700
      9 C9         -7.7197    2.5455   55.1616 C.3     1  ZINC001248546333    0.1500
     10 N10        -8.0132    2.1826   56.5555 N.am    1  ZINC001248546333   -0.6300
     11 C11        -8.6491    1.0345   56.8619 C.2     1  ZINC001248546333    0.7200
     12 O12        -8.9923    0.2749   55.9768 O.2     1  ZINC001248546333   -0.5800
     13 N13        -8.9046    0.7285   58.1494 N.am    1  ZINC001248546333   -0.7500
     14 C14        -9.5958   -0.5195   58.4824 C.3     1  ZINC001248546333    0.2000
     15 C15        -9.5078   -0.7617   59.9671 C.2     1  ZINC001248546333    0.0700
     16 C16        -9.7323    0.1523   60.9393 C.2     1  ZINC001248546333   -0.2000
     17 C17        -9.5468   -0.4782   62.1740 C.2     1  ZINC001248546333   -0.0200
     18 C18        -9.6955    0.1679   63.5273 C.3     1  ZINC001248546333    0.5600
     19 F19       -11.0371    0.1220   63.9211 F       1  ZINC001248546333   -0.1700
     20 F20        -8.9117   -0.5188   64.4606 F       1  ZINC001248546333   -0.1700
     21 F21        -9.2757    1.5006   63.4565 F       1  ZINC001248546333   -0.1600
     22 N22        -9.2227   -1.7260   61.9511 N.2     1  ZINC001248546333   -0.2200
     23 N23        -9.1968   -1.9306   60.5655 N.pl3   1  ZINC001248546333   -0.3400
     24 C24        -8.8792   -3.1891   59.8859 C.3     1  ZINC001248546333    0.0900
     25 C25        -7.5847    3.1245   57.6041 C.3     1  ZINC001248546333    0.1300
     26 C26        -6.0566    3.2269   57.5470 C.3     1  ZINC001248546333   -0.1000
     27 C27        -3.4293    4.2662   56.9848 C.ar    1  ZINC001248546333   -0.1100
     28 H28        -0.6924    4.2760   58.2271 H       1  ZINC001248546333    0.0700
     29 H29        -0.6270    5.9590   57.6514 H       1  ZINC001248546333    0.0700
     30 H30        -1.9123    5.4515   58.7734 H       1  ZINC001248546333    0.0700
     31 H31        -0.7074    5.3377   55.3078 H       1  ZINC001248546333    0.1200
     32 H32        -2.1281    4.7445   53.3889 H       1  ZINC001248546333    0.1200
     33 H33        -4.3878    3.8458   53.7570 H       1  ZINC001248546333    0.1200
     34 H34        -5.8844    3.2296   54.0989 H       1  ZINC001248546333    0.1200
     35 H35        -8.4247    3.3065   54.8271 H       1  ZINC001248546333    0.0800
     36 H36        -7.8080    1.6623   54.5289 H       1  ZINC001248546333    0.0800
     37 H37        -8.6307    1.3345   58.8555 H       1  ZINC001248546333    0.4000
     38 H38       -10.6426   -0.4447   58.1878 H       1  ZINC001248546333    0.1000
     39 H39        -9.1271   -1.3475   57.9507 H       1  ZINC001248546333    0.0900
     40 H40       -10.0058    1.1861   60.7885 H       1  ZINC001248546333    0.1700
     41 H41        -9.7939   -3.7630   59.7379 H       1  ZINC001248546333    0.0900
     42 H42        -8.4240   -2.9749   58.9189 H       1  ZINC001248546333    0.1000
     43 H43        -8.1832   -3.7654   60.4953 H       1  ZINC001248546333    0.1000
     44 H44        -8.0303    4.1030   57.4250 H       1  ZINC001248546333    0.0700
     45 H45        -7.8916    2.7523   58.5815 H       1  ZINC001248546333    0.1000
     46 H46        -5.6187    2.3229   57.9701 H       1  ZINC001248546333    0.0800
     47 H47        -5.7311    4.0887   58.1296 H       1  ZINC001248546333    0.0900
     48 H48        -3.7921    4.1345   57.9936 H       1  ZINC001248546333    0.1200
@<TRIPOS>BOND
     1     1     2    1
     2     1    28    1
     3     1    29    1
     4     1    30    1
     5     2    27   ar
     6     2     3   ar
     7     3     4   ar
     8     3    31    1
     9     4     5   ar
    10     4    32    1
    11     5     6   ar
    12     5    33    1
    13     6     7    1
    14     6    27   ar
    15     7    26    1
    16     7     8    2
    17     8     9    1
    18     8    34    1
    19     9    10    1
    20     9    35    1
    21     9    36    1
    22    10    11   am
    23    10    25    1
    24    11    12    2
    25    11    13   am
    26    13    14    1
    27    13    37    1
    28    14    15    1
    29    14    38    1
    30    14    39    1
    31    15    23    1
    32    15    16    2
    33    16    17    1
    34    16    40    1
    35    17    18    1
    36    17    22    2
    37    18    19    1
    38    18    20    1
    39    18    21    1
    40    22    23    1
    41    23    24    1
    42    24    41    1
    43    24    42    1
    44    24    43    1
    45    25    26    1
    46    25    44    1
    47    25    45    1
    48    26    46    1
    49    26    47    1
    50    27    48    1
@<TRIPOS>SUBSTRUCTURE
     1 ZINC001248546333        1 TEMP              0 ****  ****    0 ROOT


##########                                Name:    ZINC000179211660
##########                DOCK_Rotatable_Bonds:                   6
##########                         Heavy_Atoms:                  23
##########                    Molecular_Weight:             385.208
##########                DOCK_Rotatable_Bonds:                   6
##########                       Formal_Charge:        -1.78814e-07
##########                     HBond_Acceptors:                   6
##########                        HBond_Donors:                   1
##########                         Heavy_Atoms:                  23
##########                          Grid_Score:          -29.452126
##########                     Grid_vdw_energy:          -29.117632
##########                      Grid_es_energy:           -0.334494
##########           Internal_energy_repulsive:           14.854361

@<TRIPOS>MOLECULE
ZINC000179211660
 38 39 1 0 0
SMALL
USER_CHARGES


@<TRIPOS>ATOM
      1 C1        -15.5959   -2.5945   52.0831 C.3     1  ZINC000179211660    0.0300
      2 O2        -14.3622   -3.1636   52.5258 O.3     1  ZINC000179211660   -0.2700
      3 C3        -13.2629   -2.3657   52.4796 C.ar    1  ZINC000179211660    0.1500
      4 C4        -13.3688   -1.0635   52.0137 C.ar    1  ZINC000179211660   -0.2200
      5 C5        -12.2499   -0.2542   51.9682 C.ar    1  ZINC000179211660   -0.0700
      6 C6        -11.0255   -0.7414   52.3860 C.ar    1  ZINC000179211660   -0.1700
      7 C7        -10.9172   -2.0395   52.8504 C.ar    1  ZINC000179211660   -0.0700
      8 C8        -12.0340   -2.8506   52.9037 C.ar    1  ZINC000179211660   -0.1500
      9 C9        -11.9154   -4.2649   53.4104 C.3     1  ZINC000179211660    0.1800
     10 N10       -12.4677   -4.3463   54.7649 N.am    1  ZINC000179211660   -0.6200
     11 C11       -13.7369   -5.0400   54.9979 C.3     1  ZINC000179211660    0.0700
     12 C12       -11.8084   -3.7829   55.7965 C.2     1  ZINC000179211660    0.7000
     13 O13       -10.7558   -3.2058   55.6028 O.2     1  ZINC000179211660   -0.5300
     14 N14       -12.3157   -3.8593   57.0428 N.am    1  ZINC000179211660   -0.6800
     15 C15       -11.6303   -3.2736   58.1152 C.ar    1  ZINC000179211660    0.1900
     16 C16       -11.9937   -2.0130   58.5668 C.ar    1  ZINC000179211660   -0.1400
     17 C17       -11.3155   -1.4370   59.6265 C.ar    1  ZINC000179211660    0.1500
     18 F18       -11.6688   -0.2096   60.0668 F       1  ZINC000179211660   -0.1100
     19 C19       -10.2750   -2.1181   60.2366 C.ar    1  ZINC000179211660   -0.1300
     20 Br20       -9.3506   -1.3283   61.6851 Br      1  ZINC000179211660   -0.0100
     21 C21        -9.9111   -3.3755   59.7883 C.ar    1  ZINC000179211660   -0.0700
     22 C22       -10.5885   -3.9572   58.7327 C.ar    1  ZINC000179211660    0.0600
     23 F23       -10.2327   -5.1850   58.2955 F       1  ZINC000179211660   -0.1300
     24 H24       -16.3904   -3.3355   52.1720 H       1  ZINC000179211660    0.1000
     25 H25       -15.8373   -1.7274   52.6978 H       1  ZINC000179211660    0.0500
     26 H26       -15.5011   -2.2866   51.0418 H       1  ZINC000179211660    0.0500
     27 H27       -14.3250   -0.6826   51.6866 H       1  ZINC000179211660    0.1300
     28 H28       -12.3319    0.7598   51.6055 H       1  ZINC000179211660    0.1200
     29 H29       -10.1520   -0.1074   52.3493 H       1  ZINC000179211660    0.1200
     30 H30        -9.9595   -2.4180   53.1759 H       1  ZINC000179211660    0.1300
     31 H31       -12.4684   -4.9344   52.7516 H       1  ZINC000179211660    0.0900
     32 H32       -10.8656   -4.5578   53.4279 H       1  ZINC000179211660    0.1000
     33 H33       -13.5426   -6.0913   55.2103 H       1  ZINC000179211660    0.0600
     34 H34       -14.2484   -4.5863   55.8466 H       1  ZINC000179211660    0.0600
     35 H35       -14.3638   -4.9587   54.1099 H       1  ZINC000179211660    0.0800
     36 H36       -13.1554   -4.3196   57.1972 H       1  ZINC000179211660    0.4100
     37 H37       -12.8049   -1.4817   58.0915 H       1  ZINC000179211660    0.1800
     38 H38        -9.0995   -3.9045   60.2657 H       1  ZINC000179211660    0.1600
@<TRIPOS>BOND
     1     1     2    1
     2     1    24    1
     3     1    25    1
     4     1    26    1
     5     2     3    1
     6     3     8   ar
     7     3     4   ar
     8     4     5   ar
     9     4    27    1
    10     5     6   ar
    11     5    28    1
    12     6     7   ar
    13     6    29    1
    14     7     8   ar
    15     7    30    1
    16     8     9    1
    17     9    10    1
    18     9    31    1
    19     9    32    1
    20    10    11    1
    21    10    12   am
    22    11    33    1
    23    11    34    1
    24    11    35    1
    25    12    13    2
    26    12    14   am
    27    14    15    1
    28    14    36    1
    29    15    22   ar
    30    15    16   ar
    31    16    17   ar
    32    16    37    1
    33    17    18    1
    34    17    19   ar
    35    19    20    1
    36    19    21   ar
    37    21    22   ar
    38    21    38    1
    39    22    23    1
@<TRIPOS>SUBSTRUCTURE
     1 ZINC000179211660        1 TEMP              0 ****  ****    0 ROOT


##########                                Name:    ZINC000080099940
##########                DOCK_Rotatable_Bonds:                   4
##########                         Heavy_Atoms:                  26
##########                    Molecular_Weight:             343.388
##########                DOCK_Rotatable_Bonds:                   4
##########                       Formal_Charge:        -3.42727e-07
##########                     HBond_Acceptors:                   6
##########                        HBond_Donors:                   1
##########                         Heavy_Atoms:                  26
##########                          Grid_Score:          -29.418543
##########                     Grid_vdw_energy:          -29.592014
##########                      Grid_es_energy:            0.173471
##########           Internal_energy_repulsive:            7.936148

@<TRIPOS>MOLECULE
ZINC000080099940
 43 46 1 0 0
SMALL
USER_CHARGES


@<TRIPOS>ATOM
      1 C1        -14.7666   -1.4610   53.6564 C.3     1  ZINC000080099940   -0.1100
      2 C2        -13.3238   -1.5747   53.2360 C.2     1  ZINC000080099940   -0.0700
      3 C3        -12.5486   -0.4608   53.1462 C.2     1  ZINC000080099940   -0.0900
      4 C4        -11.2009   -0.5866   52.7512 C.2     1  ZINC000080099940    0.2300
      5 N5        -10.2376    0.3071   52.5824 N.2     1  ZINC000080099940   -0.4800
      6 C6         -9.1175   -0.3221   52.1931 C.2     1  ZINC000080099940    0.1000
      7 C7         -7.8145    0.3245   51.9004 C.ar    1  ZINC000080099940   -0.0200
      8 C8         -7.5372    1.5946   52.4032 C.ar    1  ZINC000080099940   -0.0800
      9 C9         -6.3256    2.1935   52.1303 C.ar    1  ZINC000080099940   -0.1200
     10 C10        -5.3813    1.5317   51.3541 C.ar    1  ZINC000080099940    0.1500
     11 N11        -4.1541    2.1409   51.0784 N.am    1  ZINC000080099940   -0.6500
     12 C12        -3.6801    2.1610   49.8169 C.2     1  ZINC000080099940    0.5700
     13 O13        -4.3196    1.6496   48.9193 O.2     1  ZINC000080099940   -0.5000
     14 C14        -2.3770    2.8079   49.5241 C.ar    1  ZINC000080099940    0.1300
     15 C15        -1.5846    3.3069   50.5585 C.ar    1  ZINC000080099940   -0.1700
     16 C16        -0.3744    3.9021   50.2308 C.ar    1  ZINC000080099940    0.1600
     17 N17        -0.0162    3.9756   48.9606 N.ar    1  ZINC000080099940   -0.5000
     18 C18        -0.7894    3.4935   48.0067 C.ar    1  ZINC000080099940    0.3200
     19 C19        -0.3366    3.6014   46.5734 C.3     1  ZINC000080099940   -0.0900
     20 N20        -1.9419    2.9167   48.2707 N.ar    1  ZINC000080099940   -0.5000
     21 C21        -5.6557    0.2650   50.8521 C.ar    1  ZINC000080099940   -0.1400
     22 C22        -6.8639   -0.3397   51.1270 C.ar    1  ZINC000080099940   -0.0700
     23 C23        -9.3820   -1.6562   52.1135 C.2     1  ZINC000080099940   -0.0900
     24 N24       -10.6922   -1.8274   52.4640 N.pl3   1  ZINC000080099940   -0.3600
     25 C25       -11.4820   -2.9370   52.5585 C.2     1  ZINC000080099940    0.0600
     26 C26       -12.7720   -2.8323   52.9408 C.2     1  ZINC000080099940   -0.1400
     27 H27       -15.2189   -2.4526   53.6744 H       1  ZINC000080099940    0.0700
     28 H28       -14.8215   -1.0185   54.6510 H       1  ZINC000080099940    0.0800
     29 H29       -15.3028   -0.8299   52.9477 H       1  ZINC000080099940    0.0800
     30 H30       -12.9614    0.5108   53.3748 H       1  ZINC000080099940    0.1500
     31 H31        -8.2708    2.1094   53.0057 H       1  ZINC000080099940    0.1300
     32 H32        -6.1102    3.1775   52.5197 H       1  ZINC000080099940    0.1400
     33 H33        -3.6435    2.5493   51.7949 H       1  ZINC000080099940    0.4200
     34 H34        -1.9048    3.2322   51.5872 H       1  ZINC000080099940    0.1600
     35 H35         0.2662    4.3004   51.0037 H       1  ZINC000080099940    0.1800
     36 H36         0.2420    2.7168   46.3075 H       1  ZINC000080099940    0.0900
     37 H37        -1.2074    3.6753   45.9219 H       1  ZINC000080099940    0.0900
     38 H38         0.2830    4.4903   46.4541 H       1  ZINC000080099940    0.0900
     39 H39        -4.9206   -0.2474   50.2493 H       1  ZINC000080099940    0.1300
     40 H40        -7.0765   -1.3241   50.7370 H       1  ZINC000080099940    0.1400
     41 H41        -8.6875   -2.4322   51.8272 H       1  ZINC000080099940    0.1900
     42 H42       -11.0691   -3.9083   52.3295 H       1  ZINC000080099940    0.1700
     43 H43       -13.3852   -3.7185   53.0117 H       1  ZINC000080099940    0.1500
@<TRIPOS>BOND
     1     1     2    1
     2     1    27    1
     3     1    28    1
     4     1    29    1
     5     2    26    1
     6     2     3    2
     7     3     4    1
     8     3    30    1
     9     4    24    1
    10     4     5    2
    11     5     6    1
    12     6     7    1
    13     6    23    2
    14     7    22   ar
    15     7     8   ar
    16     8     9   ar
    17     8    31    1
    18     9    10   ar
    19     9    32    1
    20    10    11    1
    21    10    21   ar
    22    11    12   am
    23    11    33    1
    24    12    13    2
    25    12    14    1
    26    14    20   ar
    27    14    15   ar
    28    15    16   ar
    29    15    34    1
    30    16    17   ar
    31    16    35    1
    32    17    18   ar
    33    18    19    1
    34    18    20   ar
    35    19    36    1
    36    19    37    1
    37    19    38    1
    38    21    22   ar
    39    21    39    1
    40    22    40    1
    41    23    24    1
    42    23    41    1
    43    24    25    1
    44    25    26    2
    45    25    42    1
    46    26    43    1
@<TRIPOS>SUBSTRUCTURE
     1 ZINC000080099940        1 TEMP              0 ****  ****    0 ROOT


##########                                Name:    ZINC000010935976
##########                DOCK_Rotatable_Bonds:                   3
##########                         Heavy_Atoms:                  26
##########                    Molecular_Weight:             391.558
##########                DOCK_Rotatable_Bonds:                   3
##########                       Formal_Charge:         -0.00999979
##########                     HBond_Acceptors:                   7
##########                        HBond_Donors:                   1
##########                         Heavy_Atoms:                  26
##########                          Grid_Score:          -29.403593
##########                     Grid_vdw_energy:          -28.811415
##########                      Grid_es_energy:           -0.592179
##########           Internal_energy_repulsive:          125.122269

@<TRIPOS>MOLECULE
ZINC000010935976
 51 54 1 0 0
SMALL
USER_CHARGES


@<TRIPOS>ATOM
      1 C1         -9.4421   -3.4134   60.3154 C.3     1  ZINC000010935976   -0.0800
      2 C2         -9.6901   -2.5069   59.1374 C.2     1  ZINC000010935976   -0.2100
      3 C3        -10.2806   -2.8838   58.0200 C.2     1  ZINC000010935976   -0.0400
      4 C4        -10.7798   -4.2885   57.7995 C.3     1  ZINC000010935976   -0.1000
      5 C5        -10.4129   -1.8411   57.0194 C.2     1  ZINC000010935976   -0.2300
      6 C6         -9.8783   -0.6294   57.4516 C.2     1  ZINC000010935976    0.0900
      7 N7         -9.9198    0.4456   56.6397 N.2     1  ZINC000010935976   -0.4900
      8 C8        -10.4540    0.3829   55.4436 C.2     1  ZINC000010935976    0.3400
      9 S9        -10.4742    1.8269   54.4341 S.3     1  ZINC000010935976    0.0500
     10 C10        -8.8430    1.6930   53.6613 C.3     1  ZINC000010935976   -0.1000
     11 H11        -8.5962    0.6426   53.5065 H       1  ZINC000010935976    0.1400
     12 C12        -7.7910    2.3407   54.5649 C.3     1  ZINC000010935976   -0.1000
     13 C13        -8.3690    3.5458   55.2846 C.3     1  ZINC000010935976   -0.1300
     14 C14        -8.7172    4.7008   54.3636 C.3     1  ZINC000010935976   -0.1400
     15 C15        -9.8783    4.3299   53.4390 C.3     1  ZINC000010935976    0.0700
     16 N16        -9.3354    3.6582   52.2471 N.am    1  ZINC000010935976   -0.7200
     17 C17        -8.8496    2.4154   52.3305 C.2     1  ZINC000010935976    0.5400
     18 O18        -8.4096    1.8708   51.3402 O.2     1  ZINC000010935976   -0.5200
     19 N19       -10.9943   -0.7742   54.9620 N.am    1  ZINC000010935976   -0.5100
     20 C20       -11.5809   -0.8020   53.6198 C.3     1  ZINC000010935976    0.1200
     21 C21       -10.6404   -1.5434   52.6473 C.3     1  ZINC000010935976   -0.1300
     22 C22       -11.1865   -2.9926   52.6217 C.3     1  ZINC000010935976   -0.1300
     23 C23       -12.7199   -2.7811   52.6768 C.3     1  ZINC000010935976   -0.1100
     24 C24       -12.9030   -1.5890   53.6386 C.3     1  ZINC000010935976   -0.1200
     25 C25       -10.9896   -1.8912   55.7150 C.2     1  ZINC000010935976    0.5600
     26 O26       -11.4712   -2.9273   55.2898 O.2     1  ZINC000010935976   -0.5000
     27 S27        -9.2374   -0.8141   59.0793 S.3     1  ZINC000010935976    0.2100
     28 H28        -8.9449   -2.8526   61.1069 H       1  ZINC000010935976    0.0700
     29 H29       -10.3929   -3.7978   60.6846 H       1  ZINC000010935976    0.0800
     30 H30        -8.8090   -4.2452   60.0068 H       1  ZINC000010935976    0.0800
     31 H31       -11.8123   -4.3649   58.1403 H       1  ZINC000010935976    0.0700
     32 H32       -10.7289   -4.5297   56.7378 H       1  ZINC000010935976    0.0800
     33 H33       -10.1592   -4.9869   58.3609 H       1  ZINC000010935976    0.0700
     34 H34        -7.4521    1.6116   55.3009 H       1  ZINC000010935976    0.0900
     35 H35        -6.9428    2.6578   53.9581 H       1  ZINC000010935976    0.0900
     36 H36        -9.2717    3.2364   55.8113 H       1  ZINC000010935976    0.0700
     37 H37        -7.6428    3.8934   56.0194 H       1  ZINC000010935976    0.0800
     38 H38        -8.9994    5.5655   54.9640 H       1  ZINC000010935976    0.0800
     39 H39        -7.8453    4.9534   53.7602 H       1  ZINC000010935976    0.0700
     40 H40       -10.5598    3.6570   53.9595 H       1  ZINC000010935976    0.1100
     41 H41       -10.4101    5.2331   53.1395 H       1  ZINC000010935976    0.0900
     42 H42        -9.3320    4.1194   51.3937 H       1  ZINC000010935976    0.4000
     43 H43       -11.7564    0.2148   53.2682 H       1  ZINC000010935976    0.1000
     44 H44       -10.6918   -1.0987   51.6535 H       1  ZINC000010935976    0.0800
     45 H45        -9.6165   -1.5281   53.0206 H       1  ZINC000010935976    0.0700
     46 H46       -10.8991   -3.4974   51.6992 H       1  ZINC000010935976    0.0600
     47 H47       -10.8420   -3.5507   53.4921 H       1  ZINC000010935976    0.1100
     48 H48       -13.1071   -2.5363   51.6877 H       1  ZINC000010935976    0.0600
     49 H49       -13.2135   -3.6690   53.0717 H       1  ZINC000010935976    0.0700
     50 H50       -13.1082   -1.9502   54.6462 H       1  ZINC000010935976    0.0800
     51 H51       -13.7201   -0.9543   53.2953 H       1  ZINC000010935976    0.0700
@<TRIPOS>BOND
     1     1     2    1
     2     1    28    1
     3     1    29    1
     4     1    30    1
     5     2    27    1
     6     2     3    2
     7     3     4    1
     8     3     5    1
     9     4    31    1
    10     4    32    1
    11     4    33    1
    12     5    25    1
    13     5     6    2
    14     6     7    1
    15     6    27    1
    16     7     8    2
    17     8     9    1
    18     8    19    1
    19     9    10    1
    20    10    11    1
    21    10    17    1
    22    10    12    1
    23    12    13    1
    24    12    34    1
    25    12    35    1
    26    13    14    1
    27    13    36    1
    28    13    37    1
    29    14    15    1
    30    14    38    1
    31    14    39    1
    32    15    16    1
    33    15    40    1
    34    15    41    1
    35    16    17   am
    36    16    42    1
    37    17    18    2
    38    19    20    1
    39    19    25   am
    40    20    24    1
    41    20    21    1
    42    20    43    1
    43    21    22    1
    44    21    44    1
    45    21    45    1
    46    22    23    1
    47    22    46    1
    48    22    47    1
    49    23    24    1
    50    23    48    1
    51    23    49    1
    52    24    50    1
    53    24    51    1
    54    25    26    2
@<TRIPOS>SUBSTRUCTURE
     1 ZINC000010935976        1 TEMP              0 ****  ****    0 ROOT


##########                                Name:    ZINC000331626032
##########                DOCK_Rotatable_Bonds:                   5
##########                         Heavy_Atoms:                  25
##########                    Molecular_Weight:              339.44
##########                DOCK_Rotatable_Bonds:                   5
##########                       Formal_Charge:        -2.16067e-07
##########                     HBond_Acceptors:                   6
##########                        HBond_Donors:                   2
##########                         Heavy_Atoms:                  25
##########                          Grid_Score:          -29.367352
##########                     Grid_vdw_energy:          -28.926861
##########                      Grid_es_energy:           -0.440491
##########           Internal_energy_repulsive:           31.773718

@<TRIPOS>MOLECULE
ZINC000331626032
 50 52 1 0 0
SMALL
USER_CHARGES


@<TRIPOS>ATOM
      1 C1        -14.9145   -0.3082   54.7123 C.3     1  ZINC000331626032   -0.2000
      2 C2        -14.0264   -1.4084   54.1275 C.3     1  ZINC000331626032    0.0700
      3 H3        -14.4383   -1.7394   53.1742 H       1  ZINC000331626032    0.1100
      4 C4        -12.6351   -0.8703   53.9138 C.2     1  ZINC000331626032    0.5200
      5 O5        -12.1151   -0.1788   54.7639 O.2     1  ZINC000331626032   -0.5000
      6 N6        -11.9686   -1.1573   52.7781 N.am    1  ZINC000331626032   -0.5800
      7 C7        -12.5967   -1.9924   51.7514 C.3     1  ZINC000331626032    0.0800
      8 C8        -10.6767   -0.6576   52.5797 C.ar    1  ZINC000331626032    0.1400
      9 C9         -9.6379   -1.5220   52.2598 C.ar    1  ZINC000331626032   -0.1000
     10 C10        -8.3639   -1.0257   52.0645 C.ar    1  ZINC000331626032   -0.1100
     11 C11        -8.1221    0.3302   52.1878 C.ar    1  ZINC000331626032   -0.1200
     12 C12        -9.1543    1.1934   52.5066 C.ar    1  ZINC000331626032   -0.1100
     13 C13       -10.4318    0.7043   52.6965 C.ar    1  ZINC000331626032   -0.1200
     14 N14       -13.9749   -2.5430   55.0592 N.3     1  ZINC000331626032   -0.5100
     15 C15       -13.4042   -3.7306   54.4111 C.3     1  ZINC000331626032    0.0500
     16 C16       -13.4998   -4.9271   55.3605 C.3     1  ZINC000331626032   -0.1100
     17 C17       -12.7379   -4.6110   56.6505 C.3     1  ZINC000331626032   -0.1100
     18 C18       -13.3204   -3.3426   57.2801 C.3     1  ZINC000331626032   -0.0400
     19 H19       -14.3639   -3.5138   57.5445 H       1  ZINC000331626032    0.1000
     20 C20       -12.5385   -2.9915   58.5197 C.ar    1  ZINC000331626032    0.2300
     21 C21       -13.1963   -2.6804   59.6991 C.ar    1  ZINC000331626032   -0.2900
     22 C22       -12.4394   -2.3630   60.8163 C.ar    1  ZINC000331626032    0.1900
     23 N23       -11.1200   -2.3664   60.7239 N.ar    1  ZINC000331626032   -0.5700
     24 C24       -10.5219   -2.6686   59.5808 C.ar    1  ZINC000331626032    0.5700
     25 N25        -9.1392   -2.6629   59.5197 N.pl3   1  ZINC000331626032   -0.8200
     26 N26       -11.2158   -2.9817   58.4966 N.ar    1  ZINC000331626032   -0.5700
     27 C27       -13.2299   -2.1921   56.2751 C.3     1  ZINC000331626032    0.0700
     28 H28       -14.5025    0.0229   55.6656 H       1  ZINC000331626032    0.0700
     29 H29       -14.9527    0.5337   54.0210 H       1  ZINC000331626032    0.0800
     30 H30       -15.9208   -0.6974   54.8669 H       1  ZINC000331626032    0.0700
     31 H31       -13.1454   -1.3596   51.0538 H       1  ZINC000331626032    0.0600
     32 H32       -11.8275   -2.5455   51.2122 H       1  ZINC000331626032    0.0800
     33 H33       -13.2846   -2.6935   52.2239 H       1  ZINC000331626032    0.0800
     34 H34        -9.8260   -2.5812   52.1641 H       1  ZINC000331626032    0.1200
     35 H35        -7.5556   -1.6974   51.8158 H       1  ZINC000331626032    0.1300
     36 H36        -7.1249    0.7158   52.0349 H       1  ZINC000331626032    0.1300
     37 H37        -8.9621    2.2519   52.6028 H       1  ZINC000331626032    0.1300
     38 H38       -11.2375    1.3789   52.9456 H       1  ZINC000331626032    0.1200
     39 H39       -13.9576   -3.9470   53.4973 H       1  ZINC000331626032    0.0900
     40 H40       -12.3585   -3.5438   54.1665 H       1  ZINC000331626032    0.0300
     41 H41       -14.5461   -5.1232   55.5946 H       1  ZINC000331626032    0.0800
     42 H42       -13.0620   -5.8049   54.8850 H       1  ZINC000331626032    0.0700
     43 H43       -12.8397   -5.4432   57.3469 H       1  ZINC000331626032    0.0700
     44 H44       -11.6839   -4.4530   56.4216 H       1  ZINC000331626032    0.0700
     45 H45       -14.2753   -2.6849   59.7467 H       1  ZINC000331626032    0.1400
     46 H46       -12.9212   -2.1156   61.7506 H       1  ZINC000331626032    0.1700
     47 H47        -8.6198   -2.4396   60.3078 H       1  ZINC000331626032    0.4100
     48 H48        -8.6896   -2.8823   58.6887 H       1  ZINC000331626032    0.4100
     49 H49       -12.1851   -2.0125   56.0218 H       1  ZINC000331626032    0.0400
     50 H50       -13.6569   -1.2909   56.7152 H       1  ZINC000331626032    0.0800
@<TRIPOS>BOND
     1     1     2    1
     2     1    28    1
     3     1    29    1
     4     1    30    1
     5     2     3    1
     6     2     4    1
     7     2    14    1
     8     4     5    2
     9     4     6   am
    10     6     7    1
    11     6     8    1
    12     7    31    1
    13     7    32    1
    14     7    33    1
    15     8    13   ar
    16     8     9   ar
    17     9    10   ar
    18     9    34    1
    19    10    11   ar
    20    10    35    1
    21    11    12   ar
    22    11    36    1
    23    12    13   ar
    24    12    37    1
    25    13    38    1
    26    14    27    1
    27    14    15    1
    28    15    16    1
    29    15    39    1
    30    15    40    1
    31    16    17    1
    32    16    41    1
    33    16    42    1
    34    17    18    1
    35    17    43    1
    36    17    44    1
    37    18    19    1
    38    18    20    1
    39    18    27    1
    40    20    26   ar
    41    20    21   ar
    42    21    22   ar
    43    21    45    1
    44    22    23   ar
    45    22    46    1
    46    23    24   ar
    47    24    25    1
    48    24    26   ar
    49    25    47    1
    50    25    48    1
    51    27    49    1
    52    27    50    1
@<TRIPOS>SUBSTRUCTURE
     1 ZINC000331626032        1 TEMP              0 ****  ****    0 ROOT


##########                                Name:    ZINC000566738344
##########                DOCK_Rotatable_Bonds:                   5
##########                         Heavy_Atoms:                  23
##########                    Molecular_Weight:             352.478
##########                DOCK_Rotatable_Bonds:                   5
##########                       Formal_Charge:           0.0100005
##########                     HBond_Acceptors:                   7
##########                        HBond_Donors:                   0
##########                         Heavy_Atoms:                  23
##########                          Grid_Score:          -29.269066
##########                     Grid_vdw_energy:          -28.626745
##########                      Grid_es_energy:           -0.642320
##########           Internal_energy_repulsive:           23.800903

@<TRIPOS>MOLECULE
ZINC000566738344
 43 44 1 0 0
SMALL
USER_CHARGES


@<TRIPOS>ATOM
      1 C1        -10.5712    2.0444   64.0723 C.3     1  ZINC000566738344   -0.1300
      2 C2        -10.1042    0.8831   63.2331 C.ar    1  ZINC000566738344   -0.0100
      3 C3        -10.6291    0.6863   61.9766 C.ar    1  ZINC000566738344   -0.1000
      4 C4        -10.1985   -0.3870   61.2006 C.ar    1  ZINC000566738344   -0.0500
      5 S5        -10.8737   -0.6359   59.5923 S.3     1  ZINC000566738344   -0.0300
      6 C6        -11.9779   -2.0556   59.8284 C.3     1  ZINC000566738344   -0.1200
      7 H7        -11.4691   -2.8174   60.4191 H       1  ZINC000566738344    0.1200
      8 C8        -13.2421   -1.6022   60.5609 C.3     1  ZINC000566738344   -0.1300
      9 C9        -12.3533   -2.6287   58.4860 C.2     1  ZINC000566738344    0.5200
     10 O10       -13.3317   -2.2137   57.9017 O.2     1  ZINC000566738344   -0.5000
     11 N11       -11.6019   -3.6023   57.9349 N.am    1  ZINC000566738344   -0.6000
     12 C12       -10.4211   -4.1048   58.6415 C.3     1  ZINC000566738344    0.0600
     13 C13       -11.9658   -4.1581   56.6292 C.3     1  ZINC000566738344    0.1500
     14 H14       -11.2324   -4.9082   56.3331 H       1  ZINC000566738344    0.1300
     15 C15       -13.3606   -4.8028   56.7120 C.3     1  ZINC000566738344   -0.1300
     16 C16       -13.8153   -5.0648   55.2530 C.3     1  ZINC000566738344   -0.5900
     17 S17       -13.3069   -3.5272   54.3946 S.o2    1  ZINC000566738344    2.4000
     18 O18       -12.7098   -3.8589   53.1485 O.2     1  ZINC000566738344   -0.9300
     19 O19       -14.3719   -2.5876   54.4412 O.2     1  ZINC000566738344   -0.9300
     20 C20       -12.0069   -3.0304   55.5790 C.3     1  ZINC000566738344   -0.6200
     21 C21        -9.2352   -1.2637   61.6929 C.ar    1  ZINC000566738344   -0.1400
     22 C22        -8.7062   -1.0723   62.9489 C.ar    1  ZINC000566738344   -0.0400
     23 C23        -9.1326    0.0074   63.7283 C.ar    1  ZINC000566738344   -0.0400
     24 C24        -8.5841    0.2093   65.0357 C.1     1  ZINC000566738344    0.2500
     25 N25        -8.1491    0.3696   66.0728 N.1     1  ZINC000566738344   -0.4100
     26 H26        -9.9459    2.9139   63.8693 H       1  ZINC000566738344    0.0800
     27 H27       -11.6073    2.2767   63.8265 H       1  ZINC000566738344    0.0800
     28 H28       -10.4979    1.7826   65.1278 H       1  ZINC000566738344    0.0700
     29 H29       -11.3762    1.3647   61.5918 H       1  ZINC000566738344    0.1400
     30 H30       -13.7972   -0.9066   59.9314 H       1  ZINC000566738344    0.0800
     31 H31       -13.8651   -2.4691   60.7814 H       1  ZINC000566738344    0.0800
     32 H32       -12.9651   -1.1078   61.4920 H       1  ZINC000566738344    0.0900
     33 H33       -10.7081   -4.9398   59.2808 H       1  ZINC000566738344    0.0700
     34 H34        -9.6794   -4.4405   57.9167 H       1  ZINC000566738344    0.0800
     35 H35        -9.9970   -3.3082   59.2529 H       1  ZINC000566738344    0.0800
     36 H36       -13.3053   -5.7432   57.2602 H       1  ZINC000566738344    0.1100
     37 H37       -14.0571   -4.1237   57.2038 H       1  ZINC000566738344    0.0900
     38 H38       -13.2990   -5.9294   54.8362 H       1  ZINC000566738344    0.1400
     39 H39       -14.8962   -5.1968   55.2024 H       1  ZINC000566738344    0.1400
     40 H40       -12.2660   -2.0821   56.0497 H       1  ZINC000566738344    0.1400
     41 H41       -11.0442   -2.9525   55.0736 H       1  ZINC000566738344    0.1500
     42 H42        -8.9030   -2.0949   61.0885 H       1  ZINC000566738344    0.1200
     43 H43        -7.9593   -1.7528   63.3303 H       1  ZINC000566738344    0.1400
@<TRIPOS>BOND
     1     1     2    1
     2     1    26    1
     3     1    27    1
     4     1    28    1
     5     2    23   ar
     6     2     3   ar
     7     3     4   ar
     8     3    29    1
     9     4     5    1
    10     4    21   ar
    11     5     6    1
    12     6     7    1
    13     6     8    1
    14     6     9    1
    15     8    30    1
    16     8    31    1
    17     8    32    1
    18     9    10    2
    19     9    11   am
    20    11    12    1
    21    11    13    1
    22    12    33    1
    23    12    34    1
    24    12    35    1
    25    13    14    1
    26    13    20    1
    27    13    15    1
    28    15    16    1
    29    15    36    1
    30    15    37    1
    31    16    17    1
    32    16    38    1
    33    16    39    1
    34    17    18    2
    35    17    19    2
    36    17    20    1
    37    20    40    1
    38    20    41    1
    39    21    22   ar
    40    21    42    1
    41    22    23   ar
    42    22    43    1
    43    23    24    1
    44    24    25    3
@<TRIPOS>SUBSTRUCTURE
     1 ZINC000566738344        1 TEMP              0 ****  ****    0 ROOT


##########                                Name:    ZINC000507831344
##########                DOCK_Rotatable_Bonds:                   6
##########                         Heavy_Atoms:                  31
##########                    Molecular_Weight:              422.53
##########                DOCK_Rotatable_Bonds:                   6
##########                       Formal_Charge:          -0.0200002
##########                     HBond_Acceptors:                   8
##########                        HBond_Donors:                   2
##########                         Heavy_Atoms:                  31
##########                          Grid_Score:          -29.264168
##########                     Grid_vdw_energy:          -30.039448
##########                      Grid_es_energy:            0.775280
##########           Internal_energy_repulsive:           23.169712

@<TRIPOS>MOLECULE
ZINC000507831344
 61 64 1 0 0
SMALL
USER_CHARGES


@<TRIPOS>ATOM
      1 C1        -11.3837    2.0595   51.5852 C.3     1  ZINC000507831344   -0.1000
      2 C2        -11.7771    0.8805   52.4375 C.ar    1  ZINC000507831344   -0.0800
      3 C3        -11.0021    0.5106   53.5210 C.ar    1  ZINC000507831344   -0.0800
      4 C4        -11.4044   -0.5863   54.2817 C.ar    1  ZINC000507831344    0.0900
      5 N5        -10.6496   -0.9967   55.3893 N.am    1  ZINC000507831344   -0.6700
      6 C6        -10.4905   -0.1687   56.4407 C.2     1  ZINC000507831344    0.5100
      7 O7        -11.0005    0.9318   56.4285 O.2     1  ZINC000507831344   -0.5100
      8 C8         -9.6791   -0.6099   57.6315 C.3     1  ZINC000507831344   -0.1400
      9 C9        -10.5919   -1.3120   58.6388 C.3     1  ZINC000507831344   -0.0500
     10 C10       -10.0612   -1.0967   60.0328 C.2     1  ZINC000507831344   -0.2200
     11 C11       -10.3168    0.0639   60.6923 C.2     1  ZINC000507831344    0.2100
     12 C12       -11.1332    1.1487   60.0384 C.3     1  ZINC000507831344   -0.1400
     13 N13        -9.8273    0.2342   61.9494 N.pl3   1  ZINC000507831344   -0.3000
     14 N14        -9.9213    1.2949   62.8583 N.am    1  ZINC000507831344   -0.5100
     15 C15        -9.2518    0.9584   63.9773 C.2     1  ZINC000507831344    0.5500
     16 O16        -9.1310    1.6529   64.9736 O.2     1  ZINC000507831344   -0.5400
     17 C17        -8.7201   -0.3185   63.8038 C.2     1  ZINC000507831344   -0.3500
     18 C18        -9.0856   -0.7612   62.5344 C.2     1  ZINC000507831344    0.3500
     19 N19        -8.8395   -1.9005   61.8772 N.2     1  ZINC000507831344   -0.4800
     20 C20        -9.3057   -2.0923   60.6620 C.2     1  ZINC000507831344    0.2500
     21 C21        -9.0162   -3.3839   59.9415 C.3     1  ZINC000507831344   -0.1200
     22 C22       -12.5603   -1.2658   53.9297 C.ar    1  ZINC000507831344    0.0800
     23 N23       -13.2763   -0.8852   52.8886 N.ar    1  ZINC000507831344   -0.4900
     24 C24       -12.9276    0.1542   52.1473 C.ar    1  ZINC000507831344    0.2800
     25 N25       -13.7151    0.5185   51.0586 N.3     1  ZINC000507831344   -0.4800
     26 C26       -13.8631   -0.5999   50.1186 C.3     1  ZINC000507831344    0.0600
     27 C27       -14.6086   -0.1232   48.8700 C.3     1  ZINC000507831344   -0.1200
     28 C28       -15.9845    0.4119   49.2763 C.3     1  ZINC000507831344   -0.1200
     29 C29       -15.8039    1.5432   50.2922 C.3     1  ZINC000507831344   -0.1100
     30 C30       -15.0236    1.0183   51.4995 C.3     1  ZINC000507831344    0.0900
     31 H31       -15.5824    0.2085   51.9688 H       1  ZINC000507831344    0.0600
     32 C32       -14.8231    2.1508   52.5085 C.3     1  ZINC000507831344   -0.1400
     33 H33       -11.9055    2.9504   51.9345 H       1  ZINC000507831344    0.0700
     34 H34       -10.3076    2.2169   51.6573 H       1  ZINC000507831344    0.0600
     35 H35       -11.6537    1.8637   50.5475 H       1  ZINC000507831344    0.0800
     36 H36       -10.1058    1.0582   53.7721 H       1  ZINC000507831344    0.1500
     37 H37       -10.2416   -1.8768   55.3991 H       1  ZINC000507831344    0.4100
     38 H38        -8.9002   -1.2991   57.3051 H       1  ZINC000507831344    0.1000
     39 H39        -9.2208    0.2602   58.1014 H       1  ZINC000507831344    0.1000
     40 H40       -11.5985   -0.9001   58.5657 H       1  ZINC000507831344    0.0900
     41 H41       -10.6196   -2.3797   58.4214 H       1  ZINC000507831344    0.1000
     42 H42       -12.1877    0.9998   60.2707 H       1  ZINC000507831344    0.1000
     43 H43       -10.8123    2.1207   60.4131 H       1  ZINC000507831344    0.0800
     44 H44       -10.9901    1.1102   58.9585 H       1  ZINC000507831344    0.1100
     45 H45       -10.3892    2.1311   62.7074 H       1  ZINC000507831344    0.4400
     46 H46        -8.1305   -0.8662   64.5241 H       1  ZINC000507831344    0.1700
     47 H47        -8.4128   -4.0289   60.5804 H       1  ZINC000507831344    0.0900
     48 H48        -9.9543   -3.8846   59.7021 H       1  ZINC000507831344    0.1000
     49 H49        -8.4720   -3.1723   59.0211 H       1  ZINC000507831344    0.0900
     50 H50       -12.8782   -2.1166   54.5139 H       1  ZINC000507831344    0.1600
     51 H51       -12.8774   -0.9683   49.8345 H       1  ZINC000507831344    0.0700
     52 H52       -14.4271   -1.4020   50.5944 H       1  ZINC000507831344    0.0500
     53 H53       -14.0382    0.6696   48.3860 H       1  ZINC000507831344    0.0700
     54 H54       -14.7320   -0.9573   48.1792 H       1  ZINC000507831344    0.0700
     55 H55       -16.5019    0.7924   48.3956 H       1  ZINC000507831344    0.0700
     56 H56       -16.5696   -0.3908   49.7252 H       1  ZINC000507831344    0.0600
     57 H57       -15.2523    2.3623   49.8306 H       1  ZINC000507831344    0.0700
     58 H58       -16.7812    1.8998   50.6175 H       1  ZINC000507831344    0.0700
     59 H59       -15.7906    2.4626   52.9019 H       1  ZINC000507831344    0.0600
     60 H60       -14.1937    1.8011   53.3268 H       1  ZINC000507831344    0.0500
     61 H61       -14.3418    2.9956   52.0155 H       1  ZINC000507831344    0.0600
@<TRIPOS>BOND
     1     1     2    1
     2     1    33    1
     3     1    34    1
     4     1    35    1
     5     2    24   ar
     6     2     3   ar
     7     3     4   ar
     8     3    36    1
     9     4     5    1
    10     4    22   ar
    11     5     6   am
    12     5    37    1
    13     6     7    2
    14     6     8    1
    15     8     9    1
    16     8    38    1
    17     8    39    1
    18     9    10    1
    19     9    40    1
    20     9    41    1
    21    10    20    1
    22    10    11    2
    23    11    12    1
    24    11    13    1
    25    12    42    1
    26    12    43    1
    27    12    44    1
    28    13    18    1
    29    13    14    1
    30    14    15   am
    31    14    45    1
    32    15    16    2
    33    15    17    1
    34    17    18    2
    35    17    46    1
    36    18    19    1
    37    19    20    2
    38    20    21    1
    39    21    47    1
    40    21    48    1
    41    21    49    1
    42    22    23   ar
    43    22    50    1
    44    23    24   ar
    45    24    25    1
    46    25    30    1
    47    25    26    1
    48    26    27    1
    49    26    51    1
    50    26    52    1
    51    27    28    1
    52    27    53    1
    53    27    54    1
    54    28    29    1
    55    28    55    1
    56    28    56    1
    57    29    30    1
    58    29    57    1
    59    29    58    1
    60    30    31    1
    61    30    32    1
    62    32    59    1
    63    32    60    1
    64    32    61    1
@<TRIPOS>SUBSTRUCTURE
     1 ZINC000507831344        1 TEMP              0 ****  ****    0 ROOT


##########                                Name:    ZINC000477669194
##########                DOCK_Rotatable_Bonds:                   6
##########                         Heavy_Atoms:                  26
##########                    Molecular_Weight:             387.483
##########                DOCK_Rotatable_Bonds:                   6
##########                       Formal_Charge:         4.47035e-07
##########                     HBond_Acceptors:                   8
##########                        HBond_Donors:                   2
##########                         Heavy_Atoms:                  26
##########                          Grid_Score:          -29.212925
##########                     Grid_vdw_energy:          -28.492613
##########                      Grid_es_energy:           -0.720312
##########           Internal_energy_repulsive:           25.244806

@<TRIPOS>MOLECULE
ZINC000477669194
 43 45 1 0 0
SMALL
USER_CHARGES


@<TRIPOS>ATOM
      1 C1        -10.9174    2.2876   55.5674 C.3     1  ZINC000477669194   -0.0800
      2 C2        -10.6327    1.9330   57.0042 C.2     1  ZINC000477669194    0.0500
      3 N3        -10.3391    0.7513   57.4246 N.2     1  ZINC000477669194   -0.4900
      4 C4        -10.1160    0.6102   58.7232 C.2     1  ZINC000477669194    0.1200
      5 C5         -9.7684   -0.6903   59.3456 C.ar    1  ZINC000477669194   -0.0600
      6 C6         -9.4473   -0.7544   60.6990 C.ar    1  ZINC000477669194   -0.0800
      7 C7         -9.1242   -1.9675   61.2740 C.ar    1  ZINC000477669194   -0.1400
      8 C8         -9.1181   -3.1214   60.5107 C.ar    1  ZINC000477669194   -0.0900
      9 C9         -9.4346   -3.0703   59.1662 C.ar    1  ZINC000477669194   -0.1300
     10 C10        -9.7671   -1.8600   58.5766 C.ar    1  ZINC000477669194    0.1800
     11 N11       -10.0879   -1.8064   57.2173 N.am    1  ZINC000477669194   -0.6500
     12 C12       -11.2601   -2.3086   56.7814 C.2     1  ZINC000477669194    0.5600
     13 O13       -12.0387   -2.8083   57.5707 O.2     1  ZINC000477669194   -0.5200
     14 C14       -11.5988   -2.2521   55.3470 C.ar    1  ZINC000477669194   -0.1500
     15 C15       -12.5520   -1.3383   54.8878 C.ar    1  ZINC000477669194   -0.0600
     16 C16       -12.8655   -1.2877   53.5488 C.ar    1  ZINC000477669194   -0.1400
     17 C17       -12.2344   -2.1451   52.6518 C.ar    1  ZINC000477669194    0.1700
     18 N18       -12.5535   -2.0915   51.2994 N.am    1  ZINC000477669194   -1.0600
     19 S19       -13.7339   -1.0590   50.7676 S.o2    1  ZINC000477669194    2.6100
     20 C20       -13.7991   -1.3307   48.9752 C.3     1  ZINC000477669194   -0.6700
     21 O21       -14.9208   -1.5344   51.3876 O.2     1  ZINC000477669194   -0.9400
     22 O22       -13.2239    0.2354   51.0575 O.2     1  ZINC000477669194   -0.9500
     23 C23       -11.2844   -3.0559   53.1058 C.ar    1  ZINC000477669194   -0.1600
     24 C24       -10.9630   -3.1081   54.4428 C.ar    1  ZINC000477669194   -0.0300
     25 C25       -10.2326    1.7535   59.4287 C.2     1  ZINC000477669194   -0.2600
     26 S26       -10.6470    3.0438   58.3030 S.3     1  ZINC000477669194    0.1500
     27 H27       -11.1315    3.3537   55.4919 H       1  ZINC000477669194    0.0800
     28 H28       -10.0484    2.0473   54.9548 H       1  ZINC000477669194    0.0900
     29 H29       -11.7781    1.7183   55.2163 H       1  ZINC000477669194    0.0900
     30 H30        -9.4505    0.1440   61.2983 H       1  ZINC000477669194    0.1300
     31 H31        -8.8750   -2.0158   62.3237 H       1  ZINC000477669194    0.1300
     32 H32        -8.8644   -4.0666   60.9675 H       1  ZINC000477669194    0.1300
     33 H33        -9.4274   -3.9744   58.5754 H       1  ZINC000477669194    0.1500
     34 H34        -9.4669   -1.4079   56.5878 H       1  ZINC000477669194    0.4200
     35 H35       -13.0422   -0.6731   55.5832 H       1  ZINC000477669194    0.1300
     36 H36       -13.6021   -0.5823   53.1936 H       1  ZINC000477669194    0.1400
     37 H37       -12.0846   -2.6588   50.6676 H       1  ZINC000477669194    0.4300
     38 H38       -14.1358   -2.3477   48.7739 H       1  ZINC000477669194    0.1300
     39 H39       -14.4945   -0.6220   48.5253 H       1  ZINC000477669194    0.1400
     40 H40       -12.8063   -1.1856   48.5494 H       1  ZINC000477669194    0.1300
     41 H41       -10.7963   -3.7195   52.4073 H       1  ZINC000477669194    0.1700
     42 H42       -10.2257   -3.8146   54.7943 H       1  ZINC000477669194    0.1500
     43 H43       -10.0928    1.8600   60.4943 H       1  ZINC000477669194    0.1800
@<TRIPOS>BOND
     1     1     2    1
     2     1    27    1
     3     1    28    1
     4     1    29    1
     5     2    26    1
     6     2     3    2
     7     3     4    1
     8     4     5    1
     9     4    25    2
    10     5    10   ar
    11     5     6   ar
    12     6     7   ar
    13     6    30    1
    14     7     8   ar
    15     7    31    1
    16     8     9   ar
    17     8    32    1
    18     9    10   ar
    19     9    33    1
    20    10    11    1
    21    11    12   am
    22    11    34    1
    23    12    13    2
    24    12    14    1
    25    14    24   ar
    26    14    15   ar
    27    15    16   ar
    28    15    35    1
    29    16    17   ar
    30    16    36    1
    31    17    18    1
    32    17    23   ar
    33    18    19   am
    34    18    37    1
    35    19    20    1
    36    19    21    2
    37    19    22    2
    38    20    38    1
    39    20    39    1
    40    20    40    1
    41    23    24   ar
    42    23    41    1
    43    24    42    1
    44    25    26    1
    45    25    43    1
@<TRIPOS>SUBSTRUCTURE
     1 ZINC000477669194        1 TEMP              0 ****  ****    0 ROOT


##########                                Name:    ZINC000560467340
##########                DOCK_Rotatable_Bonds:                   7
##########                         Heavy_Atoms:                  24
##########                    Molecular_Weight:             369.481
##########                DOCK_Rotatable_Bonds:                   7
##########                       Formal_Charge:          -0.0199997
##########                     HBond_Acceptors:                   7
##########                        HBond_Donors:                   2
##########                         Heavy_Atoms:                  24
##########                          Grid_Score:          -29.199492
##########                     Grid_vdw_energy:          -29.887941
##########                      Grid_es_energy:            0.688450
##########           Internal_energy_repulsive:           22.572094

@<TRIPOS>MOLECULE
ZINC000560467340
 44 46 1 0 0
SMALL
USER_CHARGES


@<TRIPOS>ATOM
      1 O1        -12.1073   -1.0284   53.1115 O.2     1  ZINC000560467340   -0.9600
      2 S2        -11.1873   -0.3741   53.9746 S.o2    1  ZINC000560467340    2.7100
      3 O3        -11.4135    0.9210   54.5138 O.2     1  ZINC000560467340   -0.9500
      4 N4        -10.9578   -1.3849   55.2661 N.am    1  ZINC000560467340   -1.0900
      5 C5        -12.0624   -1.6559   56.1895 C.3     1  ZINC000560467340    0.1400
      6 C6        -12.1248   -3.1560   56.4839 C.3     1  ZINC000560467340   -0.0500
      7 C7        -10.7228   -3.6895   56.7847 C.3     1  ZINC000560467340   -0.0700
      8 C8        -10.2407   -3.1237   58.0958 C.ar    1  ZINC000560467340   -0.0900
      9 C9        -10.2715   -3.9029   59.2373 C.ar    1  ZINC000560467340   -0.0900
     10 C10        -9.8297   -3.3852   60.4401 C.ar    1  ZINC000560467340   -0.1500
     11 C11        -9.3557   -2.0856   60.5014 C.ar    1  ZINC000560467340    0.1000
     12 F12        -8.9231   -1.5787   61.6765 F       1  ZINC000560467340   -0.1400
     13 C13        -9.3249   -1.3064   59.3574 C.ar    1  ZINC000560467340   -0.1500
     14 C14        -9.7628   -1.8279   58.1547 C.ar    1  ZINC000560467340   -0.0900
     15 C15       -12.7296   -3.9062   55.2792 C.3     1  ZINC000560467340   -0.1300
     16 C16       -13.5878   -5.0249   55.9203 C.3     1  ZINC000560467340   -0.1200
     17 C17       -14.1957   -4.3218   57.1593 C.3     1  ZINC000560467340   -0.1600
     18 C18       -13.0570   -3.4202   57.6792 C.3     1  ZINC000560467340    0.1100
     19 H19       -12.5108   -3.9293   58.4733 H       1  ZINC000560467340    0.0600
     20 O20       -13.5919   -2.1877   58.1659 O.3     1  ZINC000560467340   -0.5500
     21 C21        -9.6595   -0.2894   53.1008 C.2     1  ZINC000560467340   -0.6900
     22 C22        -9.3413   -1.1444   52.1277 C.2     1  ZINC000560467340   -0.1000
     23 S23        -7.7486   -0.7505   51.4939 S.3     1  ZINC000560467340    0.1500
     24 C24        -7.6001    0.5929   52.6194 C.2     1  ZINC000560467340   -0.2200
     25 C25        -8.7011    0.6729   53.3682 C.2     1  ZINC000560467340   -0.0700
     26 H26       -10.0921   -1.7976   55.4112 H       1  ZINC000560467340    0.4200
     27 H27       -11.9014   -1.1097   57.1189 H       1  ZINC000560467340    0.0600
     28 H28       -13.0009   -1.3350   55.7374 H       1  ZINC000560467340    0.0800
     29 H29       -10.7536   -4.7772   56.8478 H       1  ZINC000560467340    0.0800
     30 H30       -10.0417   -3.3908   55.9879 H       1  ZINC000560467340    0.0800
     31 H31       -10.6413   -4.9164   59.1891 H       1  ZINC000560467340    0.1300
     32 H32        -9.8545   -3.9938   61.3319 H       1  ZINC000560467340    0.1400
     33 H33        -8.9557   -0.2925   59.4040 H       1  ZINC000560467340    0.1400
     34 H34        -9.7386   -1.2203   57.2621 H       1  ZINC000560467340    0.1300
     35 H35       -13.3549   -3.2372   54.6880 H       1  ZINC000560467340    0.0700
     36 H36       -11.9406   -4.3367   54.6627 H       1  ZINC000560467340    0.0800
     37 H37       -14.3723   -5.3497   55.2368 H       1  ZINC000560467340    0.0700
     38 H38       -12.9636   -5.8663   56.2212 H       1  ZINC000560467340    0.0700
     39 H39       -15.0577   -3.7199   56.8717 H       1  ZINC000560467340    0.0800
     40 H40       -14.4766   -5.0555   57.9149 H       1  ZINC000560467340    0.0700
     41 H41       -13.5808   -1.4707   57.5172 H       1  ZINC000560467340    0.3800
     42 H42        -9.9659   -1.9548   51.7820 H       1  ZINC000560467340    0.1800
     43 H43        -6.7496    1.2547   52.6902 H       1  ZINC000560467340    0.1700
     44 H44        -8.8316    1.4265   54.1307 H       1  ZINC000560467340    0.1500
@<TRIPOS>BOND
     1     1     2    2
     2     2     3    2
     3     2     4   am
     4     2    21    1
     5     4     5    1
     6     4    26    1
     7     5     6    1
     8     5    27    1
     9     5    28    1
    10     6    18    1
    11     6     7    1
    12     6    15    1
    13     7     8    1
    14     7    29    1
    15     7    30    1
    16     8    14   ar
    17     8     9   ar
    18     9    10   ar
    19     9    31    1
    20    10    11   ar
    21    10    32    1
    22    11    12    1
    23    11    13   ar
    24    13    14   ar
    25    13    33    1
    26    14    34    1
    27    15    16    1
    28    15    35    1
    29    15    36    1
    30    16    17    1
    31    16    37    1
    32    16    38    1
    33    17    18    1
    34    17    39    1
    35    17    40    1
    36    18    19    1
    37    18    20    1
    38    20    41    1
    39    21    25    1
    40    21    22    2
    41    22    23    1
    42    22    42    1
    43    23    24    1
    44    24    25    2
    45    24    43    1
    46    25    44    1
@<TRIPOS>SUBSTRUCTURE
     1 ZINC000560467340        1 TEMP              0 ****  ****    0 ROOT


##########                                Name:    ZINC000482139334
##########                DOCK_Rotatable_Bonds:                   4
##########                         Heavy_Atoms:                  26
##########                    Molecular_Weight:             348.376
##########                DOCK_Rotatable_Bonds:                   4
##########                       Formal_Charge:           0.0300002
##########                     HBond_Acceptors:                   5
##########                        HBond_Donors:                   1
##########                         Heavy_Atoms:                  26
##########                          Grid_Score:          -29.141062
##########                     Grid_vdw_energy:          -27.846237
##########                      Grid_es_energy:           -1.294824
##########           Internal_energy_repulsive:           11.943988

@<TRIPOS>MOLECULE
ZINC000482139334
 43 47 1 0 0
SMALL
USER_CHARGES


@<TRIPOS>ATOM
      1 O1        -11.4103   -4.6501   56.7345 O.2     1  ZINC000482139334   -0.4800
      2 C2        -11.5116   -3.6229   56.0979 C.2     1  ZINC000482139334    0.5500
      3 N3        -11.1693   -2.4461   56.6587 N.am    1  ZINC000482139334   -0.6100
      4 C4        -10.7070   -2.4092   57.9649 C.2     1  ZINC000482139334    0.4300
      5 N5        -10.5622   -1.3299   58.6900 N.2     1  ZINC000482139334   -0.4800
      6 C6        -10.0890   -1.6916   59.9113 C.2     1  ZINC000482139334    0.0400
      7 C7         -9.7831   -0.7793   61.0406 C.ar    1  ZINC000482139334   -0.0500
      8 C8         -9.0317   -1.2330   62.1222 C.ar    1  ZINC000482139334   -0.0800
      9 C9         -8.7494   -0.3799   63.1703 C.ar    1  ZINC000482139334   -0.1300
     10 C10        -9.2112    0.9236   63.1492 C.ar    1  ZINC000482139334   -0.0800
     11 C11        -9.9584    1.3814   62.0790 C.ar    1  ZINC000482139334   -0.1600
     12 C12       -10.2423    0.5386   61.0209 C.ar    1  ZINC000482139334    0.1300
     13 F13       -10.9720    0.9860   59.9757 F       1  ZINC000482139334   -0.1200
     14 C14        -9.9487   -3.0383   59.9076 C.2     1  ZINC000482139334   -0.0600
     15 O15       -10.3410   -3.4754   58.6928 O.3     1  ZINC000482139334   -0.1800
     16 C16       -12.0142   -3.6630   54.6777 C.3     1  ZINC000482139334   -0.1800
     17 H17       -11.3415   -3.2447   53.9289 H       1  ZINC000482139334    0.1400
     18 C18       -12.8748   -4.8603   54.2655 C.3     1  ZINC000482139334   -0.1200
     19 C19       -13.5113   -3.4872   54.4556 C.3     1  ZINC000482139334   -0.0500
     20 C20       -14.4638   -3.2083   55.6304 C.3     1  ZINC000482139334   -0.0700
     21 C21       -15.7816   -2.8547   54.9058 C.3     1  ZINC000482139334   -0.0900
     22 C22       -15.3611   -2.3307   53.5487 C.ar    1  ZINC000482139334   -0.0800
     23 C23       -16.0670   -1.5922   52.6147 C.ar    1  ZINC000482139334   -0.1100
     24 C24       -15.4705   -1.2213   51.4253 C.ar    1  ZINC000482139334   -0.1100
     25 C25       -14.1636   -1.5888   51.1658 C.ar    1  ZINC000482139334   -0.1200
     26 C26       -13.4569   -2.3254   52.0961 C.ar    1  ZINC000482139334   -0.1000
     27 C27       -14.0520   -2.6983   53.2895 C.ar    1  ZINC000482139334   -0.0700
     28 H28       -11.2464   -1.6249   56.1482 H       1  ZINC000482139334    0.4400
     29 H29        -8.6706   -2.2508   62.1410 H       1  ZINC000482139334    0.1300
     30 H30        -8.1667   -0.7315   64.0089 H       1  ZINC000482139334    0.1400
     31 H31        -8.9877    1.5866   63.9720 H       1  ZINC000482139334    0.1400
     32 H32       -10.3170    2.4001   62.0682 H       1  ZINC000482139334    0.1400
     33 H33        -9.5929   -3.6485   60.7247 H       1  ZINC000482139334    0.2200
     34 H34       -12.7689   -5.2291   53.2453 H       1  ZINC000482139334    0.1200
     35 H35       -13.0775   -5.6190   55.0216 H       1  ZINC000482139334    0.1100
     36 H36       -14.5876   -4.0971   56.2491 H       1  ZINC000482139334    0.0800
     37 H37       -14.1100   -2.3661   56.2252 H       1  ZINC000482139334    0.0900
     38 H38       -16.4009   -3.7444   54.7922 H       1  ZINC000482139334    0.0800
     39 H39       -16.3215   -2.0851   55.4575 H       1  ZINC000482139334    0.0800
     40 H40       -17.0885   -1.3051   52.8166 H       1  ZINC000482139334    0.1200
     41 H41       -16.0247   -0.6454   50.6990 H       1  ZINC000482139334    0.1300
     42 H42       -13.6955   -1.3003   50.2361 H       1  ZINC000482139334    0.1300
     43 H43       -12.4358   -2.6122   51.8918 H       1  ZINC000482139334    0.1200
@<TRIPOS>BOND
     1     1     2    2
     2     2     3   am
     3     2    16    1
     4     3     4    1
     5     3    28    1
     6     4    15    1
     7     4     5    2
     8     5     6    1
     9     6     7    1
    10     6    14    2
    11     7    12   ar
    12     7     8   ar
    13     8     9   ar
    14     8    29    1
    15     9    10   ar
    16     9    30    1
    17    10    11   ar
    18    10    31    1
    19    11    12   ar
    20    11    32    1
    21    12    13    1
    22    14    15    1
    23    14    33    1
    24    16    17    1
    25    16    19    1
    26    16    18    1
    27    18    19    1
    28    18    34    1
    29    18    35    1
    30    19    27    1
    31    19    20    1
    32    20    21    1
    33    20    36    1
    34    20    37    1
    35    21    22    1
    36    21    38    1
    37    21    39    1
    38    22    27   ar
    39    22    23   ar
    40    23    24   ar
    41    23    40    1
    42    24    25   ar
    43    24    41    1
    44    25    26   ar
    45    25    42    1
    46    26    27   ar
    47    26    43    1
@<TRIPOS>SUBSTRUCTURE
     1 ZINC000482139334        1 TEMP              0 ****  ****    0 ROOT


##########                                Name:    ZINC000521663393
##########                DOCK_Rotatable_Bonds:                   5
##########                         Heavy_Atoms:                  27
##########                    Molecular_Weight:              386.49
##########                DOCK_Rotatable_Bonds:                   5
##########                       Formal_Charge:               -0.02
##########                     HBond_Acceptors:                   6
##########                        HBond_Donors:                   1
##########                         Heavy_Atoms:                  27
##########                          Grid_Score:          -29.096651
##########                     Grid_vdw_energy:          -29.304518
##########                      Grid_es_energy:            0.207867
##########           Internal_energy_repulsive:           22.574986

@<TRIPOS>MOLECULE
ZINC000521663393
 50 53 1 0 0
SMALL
USER_CHARGES


@<TRIPOS>ATOM
      1 C1        -13.4082   -4.0336   54.9932 C.3     1  ZINC000521663393   -0.1500
      2 C2        -12.0172   -3.6261   55.4831 C.3     1  ZINC000521663393    0.0800
      3 H3        -11.2914   -3.6842   54.6720 H       1  ZINC000521663393    0.0900
      4 O4        -11.6080   -4.4443   56.5923 O.3     1  ZINC000521663393   -0.2900
      5 C5        -10.8554   -3.6979   57.4465 C.ar    1  ZINC000521663393    0.1400
      6 C6         -9.9652   -4.1023   58.4374 C.ar    1  ZINC000521663393   -0.1800
      7 C7         -9.3058   -3.1619   59.2059 C.ar    1  ZINC000521663393    0.1400
      8 F8         -8.4439   -3.5625   60.1660 F       1  ZINC000521663393   -0.1300
      9 C9         -9.5244   -1.8107   58.9960 C.ar    1  ZINC000521663393   -0.1800
     10 C10       -10.4045   -1.4028   58.0095 C.ar    1  ZINC000521663393   -0.0200
     11 C11       -11.0596   -2.3390   57.2409 C.ar    1  ZINC000521663393   -0.2000
     12 C12       -12.0455   -2.2045   56.0926 C.3     1  ZINC000521663393    0.1700
     13 H13       -13.0412   -1.9579   56.4609 H       1  ZINC000521663393    0.1200
     14 N14       -11.5868   -1.2066   55.1231 N.am    1  ZINC000521663393   -0.7200
     15 C15       -12.4843   -0.4849   54.4229 C.2     1  ZINC000521663393    0.5300
     16 O16       -13.6717   -0.6605   54.5967 O.2     1  ZINC000521663393   -0.5000
     17 C17       -12.0124    0.5403   53.4243 C.3     1  ZINC000521663393    0.1200
     18 H18       -11.9916    1.5233   53.8949 H       1  ZINC000521663393    0.0700
     19 C19       -10.6275    0.1804   52.9512 C.ar    1  ZINC000521663393   -0.0900
     20 C20       -10.3254   -1.1299   52.6306 C.ar    1  ZINC000521663393   -0.0900
     21 C21        -9.0552   -1.4600   52.1968 C.ar    1  ZINC000521663393   -0.1200
     22 C22        -8.0871   -0.4798   52.0830 C.ar    1  ZINC000521663393   -0.1100
     23 C23        -8.3895    0.8307   52.4027 C.ar    1  ZINC000521663393   -0.1200
     24 C24        -9.6610    1.1615   52.8326 C.ar    1  ZINC000521663393   -0.1100
     25 N25       -12.9303    0.5657   52.2776 N.3     1  ZINC000521663393   -0.5300
     26 C26       -13.0252   -0.7550   51.6517 C.3     1  ZINC000521663393    0.0500
     27 C27       -14.2785   -0.8258   50.7727 C.3     1  ZINC000521663393   -0.0700
     28 S28       -14.1283    0.4161   49.4522 S.3     1  ZINC000521663393   -0.2700
     29 C29       -13.7297    1.9200   50.3946 C.3     1  ZINC000521663393   -0.0700
     30 C30       -12.5519    1.6127   51.3257 C.3     1  ZINC000521663393    0.0600
     31 H31       -13.7266   -3.3572   54.1999 H       1  ZINC000521663393    0.0800
     32 H32       -13.3740   -5.0532   54.6094 H       1  ZINC000521663393    0.0800
     33 H33       -14.1150   -3.9806   55.8213 H       1  ZINC000521663393    0.0700
     34 H34        -9.7896   -5.1544   58.6065 H       1  ZINC000521663393    0.1400
     35 H35        -9.0100   -1.0781   59.6003 H       1  ZINC000521663393    0.1400
     36 H36       -10.5777   -0.3500   57.8421 H       1  ZINC000521663393    0.1300
     37 H37       -10.6372   -1.0653   54.9849 H       1  ZINC000521663393    0.4000
     38 H38       -11.0817   -1.8957   52.7195 H       1  ZINC000521663393    0.1300
     39 H39        -8.8189   -2.4838   51.9470 H       1  ZINC000521663393    0.1300
     40 H40        -7.0945   -0.7378   51.7446 H       1  ZINC000521663393    0.1200
     41 H41        -7.6331    1.5965   52.3142 H       1  ZINC000521663393    0.1300
     42 H42        -9.8972    2.1854   53.0823 H       1  ZINC000521663393    0.1200
     43 H43       -12.1417   -0.9291   51.0376 H       1  ZINC000521663393    0.0500
     44 H44       -13.0826   -1.5197   52.4265 H       1  ZINC000521663393    0.1000
     45 H45       -14.3617   -1.8196   50.3329 H       1  ZINC000521663393    0.1100
     46 H46       -15.1613   -0.6140   51.3760 H       1  ZINC000521663393    0.0900
     47 H47       -13.4544    2.7204   49.7077 H       1  ZINC000521663393    0.1100
     48 H48       -14.5945    2.2219   50.9854 H       1  ZINC000521663393    0.1000
     49 H49       -12.2762    2.5154   51.8709 H       1  ZINC000521663393    0.0800
     50 H50       -11.7014    1.2742   50.7342 H       1  ZINC000521663393    0.0500
@<TRIPOS>BOND
     1     1     2    1
     2     1    31    1
     3     1    32    1
     4     1    33    1
     5     2     3    1
     6     2    12    1
     7     2     4    1
     8     4     5    1
     9     5    11   ar
    10     5     6   ar
    11     6     7   ar
    12     6    34    1
    13     7     8    1
    14     7     9   ar
    15     9    10   ar
    16     9    35    1
    17    10    11   ar
    18    10    36    1
    19    11    12    1
    20    12    13    1
    21    12    14    1
    22    14    15   am
    23    14    37    1
    24    15    16    2
    25    15    17    1
    26    17    18    1
    27    17    19    1
    28    17    25    1
    29    19    24   ar
    30    19    20   ar
    31    20    21   ar
    32    20    38    1
    33    21    22   ar
    34    21    39    1
    35    22    23   ar
    36    22    40    1
    37    23    24   ar
    38    23    41    1
    39    24    42    1
    40    25    30    1
    41    25    26    1
    42    26    27    1
    43    26    43    1
    44    26    44    1
    45    27    28    1
    46    27    45    1
    47    27    46    1
    48    28    29    1
    49    29    30    1
    50    29    47    1
    51    29    48    1
    52    30    49    1
    53    30    50    1
@<TRIPOS>SUBSTRUCTURE
     1 ZINC000521663393        1 TEMP              0 ****  ****    0 ROOT


##########                                Name:    ZINC000518937710
##########                DOCK_Rotatable_Bonds:                   6
##########                         Heavy_Atoms:                  25
##########                    Molecular_Weight:             397.421
##########                DOCK_Rotatable_Bonds:                   6
##########                       Formal_Charge:          -0.0199997
##########                     HBond_Acceptors:                  11
##########                        HBond_Donors:                   0
##########                         Heavy_Atoms:                  25
##########                          Grid_Score:          -29.062551
##########                     Grid_vdw_energy:          -29.199635
##########                      Grid_es_energy:            0.137084
##########           Internal_energy_repulsive:           26.272823

@<TRIPOS>MOLECULE
ZINC000518937710
 42 44 1 0 0
SMALL
USER_CHARGES


@<TRIPOS>ATOM
      1 C1        -10.7424   -3.1731   53.7340 C.3     1  ZINC000518937710   -0.1900
      2 C2        -11.3345   -2.8730   55.1125 C.3     1  ZINC000518937710    0.1700
      3 H3        -10.5395   -2.8771   55.8581 H       1  ZINC000518937710    0.1100
      4 C4        -12.0063   -1.4986   55.0906 C.3     1  ZINC000518937710   -0.6600
      5 S5        -10.8006   -0.2285   55.5636 S.o2    1  ZINC000518937710    2.4000
      6 C6        -11.7112    1.3010   55.2147 C.3     1  ZINC000518937710   -0.6600
      7 O7        -10.5789   -0.3140   56.9646 O.2     1  ZINC000518937710   -0.9200
      8 O8         -9.6907   -0.3063   54.6796 O.2     1  ZINC000518937710   -0.9300
      9 N9        -12.3268   -3.8962   55.4511 N.am    1  ZINC000518937710   -0.9600
     10 C10       -13.3156   -4.3158   54.4550 C.3     1  ZINC000518937710    0.0800
     11 C11       -14.7885   -4.2927   54.8684 C.3     1  ZINC000518937710   -0.1800
     12 C12       -14.2511   -3.2435   53.8931 C.3     1  ZINC000518937710   -0.1800
     13 S13       -12.3307   -4.5785   56.9601 S.o2    1  ZINC000518937710    2.6900
     14 O14       -13.4850   -5.4049   57.0238 O.2     1  ZINC000518937710   -0.9400
     15 O15       -11.0141   -5.0638   57.1845 O.2     1  ZINC000518937710   -0.9400
     16 C16       -12.5857   -3.2770   58.1202 C.ar    1  ZINC000518937710   -0.6400
     17 C17       -13.8045   -2.6267   58.1721 C.ar    1  ZINC000518937710   -0.0300
     18 C18       -14.0082   -1.6052   59.0811 C.ar    1  ZINC000518937710   -0.1300
     19 C19       -12.9942   -1.2301   59.9424 C.ar    1  ZINC000518937710   -0.0300
     20 C20       -11.7701   -1.8773   59.8961 C.ar    1  ZINC000518937710    0.0200
     21 C21       -11.5666   -2.9099   58.9839 C.ar    1  ZINC000518937710    0.1900
     22 O22       -10.2939   -3.3800   59.1340 O.3     1  ZINC000518937710   -0.2800
     23 C23        -9.5896   -2.3570   59.8625 C.3     1  ZINC000518937710    0.5700
     24 F24        -8.6425   -2.9276   60.7196 F       1  ZINC000518937710   -0.1200
     25 F25        -8.9759   -1.4601   58.9814 F       1  ZINC000518937710   -0.1400
     26 O26       -10.6265   -1.7036   60.6208 O.3     1  ZINC000518937710   -0.2900
     27 H27       -11.5422   -3.2052   52.9942 H       1  ZINC000518937710    0.1000
     28 H28       -10.0309   -2.3921   53.4663 H       1  ZINC000518937710    0.0800
     29 H29       -10.2322   -4.1361   53.7596 H       1  ZINC000518937710    0.0700
     30 H30       -12.3774   -1.2914   54.0869 H       1  ZINC000518937710    0.1600
     31 H31       -12.8384   -1.4897   55.7946 H       1  ZINC000518937710    0.1400
     32 H32       -12.5729    1.3704   55.8786 H       1  ZINC000518937710    0.1300
     33 H33       -11.0575    2.1581   55.3773 H       1  ZINC000518937710    0.1300
     34 H34       -12.0501    1.2939   54.1788 H       1  ZINC000518937710    0.1300
     35 H35       -12.9947   -5.1083   53.7788 H       1  ZINC000518937710    0.1500
     36 H36       -15.4369   -5.0702   54.4643 H       1  ZINC000518937710    0.1100
     37 H37       -15.0217   -3.9653   55.8816 H       1  ZINC000518937710    0.1000
     38 H38       -14.1309   -2.2259   54.2645 H       1  ZINC000518937710    0.1000
     39 H39       -14.5460   -3.3307   52.8473 H       1  ZINC000518937710    0.1000
     40 H40       -14.5991   -2.9171   57.5008 H       1  ZINC000518937710    0.1600
     41 H41       -14.9615   -1.0990   59.1181 H       1  ZINC000518937710    0.1600
     42 H42       -13.1561   -0.4317   60.6515 H       1  ZINC000518937710    0.1500
@<TRIPOS>BOND
     1     1     2    1
     2     1    27    1
     3     1    28    1
     4     1    29    1
     5     2     3    1
     6     2     4    1
     7     2     9    1
     8     4     5    1
     9     4    30    1
    10     4    31    1
    11     5     6    1
    12     5     7    2
    13     5     8    2
    14     6    32    1
    15     6    33    1
    16     6    34    1
    17     9    10    1
    18     9    13   am
    19    10    12    1
    20    10    11    1
    21    10    35    1
    22    11    12    1
    23    11    36    1
    24    11    37    1
    25    12    38    1
    26    12    39    1
    27    13    14    2
    28    13    15    2
    29    13    16    1
    30    16    21   ar
    31    16    17   ar
    32    17    18   ar
    33    17    40    1
    34    18    19   ar
    35    18    41    1
    36    19    20   ar
    37    19    42    1
    38    20    26    1
    39    20    21   ar
    40    21    22    1
    41    22    23    1
    42    23    24    1
    43    23    25    1
    44    23    26    1
@<TRIPOS>SUBSTRUCTURE
     1 ZINC000518937710        1 TEMP              0 ****  ****    0 ROOT


##########                                Name:    ZINC000435292384
##########                DOCK_Rotatable_Bonds:                   6
##########                         Heavy_Atoms:                  22
##########                    Molecular_Weight:             326.503
##########                DOCK_Rotatable_Bonds:                   6
##########                       Formal_Charge:         -0.00999993
##########                     HBond_Acceptors:                   5
##########                        HBond_Donors:                   0
##########                         Heavy_Atoms:                  22
##########                          Grid_Score:          -29.040821
##########                     Grid_vdw_energy:          -28.611694
##########                      Grid_es_energy:           -0.429127
##########           Internal_energy_repulsive:           22.466623

@<TRIPOS>MOLECULE
ZINC000435292384
 52 53 1 0 0
SMALL
USER_CHARGES


@<TRIPOS>ATOM
      1 C1        -10.6975    2.7985   62.7166 C.3     1  ZINC000435292384   -0.1500
      2 C2        -10.4184    1.2974   62.8143 C.3     1  ZINC000435292384   -0.1200
      3 C3        -10.7550    0.6282   61.4801 C.3     1  ZINC000435292384   -0.1400
      4 C4        -10.7281   -0.8920   61.6510 C.3     1  ZINC000435292384    0.1600
      5 H5        -11.3175   -1.1698   62.5248 H       1  ZINC000435292384    0.0900
      6 C6         -9.2834   -1.3583   61.8411 C.3     1  ZINC000435292384   -0.1700
      7 N7        -11.2935   -1.5275   60.4582 N.am    1  ZINC000435292384   -0.6100
      8 C8        -10.5034   -1.9757   59.3054 C.3     1  ZINC000435292384    0.1200
      9 C9        -11.4221   -2.9436   58.5274 C.3     1  ZINC000435292384   -0.1300
     10 H10       -11.2624   -3.9737   58.8459 H       1  ZINC000435292384    0.1100
     11 C11       -11.2174   -2.8038   57.0409 C.2     1  ZINC000435292384    0.5200
     12 O12       -10.5907   -1.8633   56.6009 O.2     1  ZINC000435292384   -0.5200
     13 N13       -11.7309   -3.7238   56.2005 N.am    1  ZINC000435292384   -0.6000
     14 C14       -12.4886   -4.8562   56.7683 C.3     1  ZINC000435292384    0.1000
     15 C15       -13.7569   -5.1717   55.9548 C.3     1  ZINC000435292384   -0.1300
     16 C16       -14.4301   -3.8911   55.5265 C.3     1  ZINC000435292384   -0.1100
     17 C17       -13.9133   -3.4842   54.1499 C.3     1  ZINC000435292384   -0.1200
     18 C18       -12.6624   -2.7108   54.1766 C.3     1  ZINC000435292384   -0.0700
     19 H19       -12.8047   -1.8154   54.7818 H       1  ZINC000435292384    0.0900
     20 S20       -12.2191   -2.2277   52.4852 S.3     1  ZINC000435292384   -0.2500
     21 C21       -11.0999   -0.8234   52.7419 C.3     1  ZINC000435292384   -0.1200
     22 C22       -11.5218   -3.5578   54.7796 C.3     1  ZINC000435292384    0.1400
     23 C23       -12.8266   -2.4475   58.9425 C.3     1  ZINC000435292384   -0.1400
     24 C24       -12.6018   -1.7802   60.2815 C.2     1  ZINC000435292384    0.5200
     25 O25       -13.4757   -1.5065   61.0766 O.2     1  ZINC000435292384   -0.5200
     26 H26       -10.4578    3.2753   63.6670 H       1  ZINC000435292384    0.0500
     27 H27       -10.0828    3.2318   61.9276 H       1  ZINC000435292384    0.0500
     28 H28       -11.7508    2.9581   62.4856 H       1  ZINC000435292384    0.0500
     29 H29        -9.3652    1.1379   63.0453 H       1  ZINC000435292384    0.0600
     30 H30       -11.0331    0.8641   63.6033 H       1  ZINC000435292384    0.0600
     31 H31       -11.7484    0.9400   61.1576 H       1  ZINC000435292384    0.0800
     32 H32       -10.0205    0.9226   60.7305 H       1  ZINC000435292384    0.0800
     33 H33        -8.6940   -1.0804   60.9673 H       1  ZINC000435292384    0.0700
     34 H34        -8.8627   -0.8854   62.7284 H       1  ZINC000435292384    0.0700
     35 H35        -9.2642   -2.4413   61.9627 H       1  ZINC000435292384    0.0600
     36 H36       -10.2346   -1.1252   58.6789 H       1  ZINC000435292384    0.0900
     37 H37        -9.6064   -2.4955   59.6420 H       1  ZINC000435292384    0.0800
     38 H38       -11.8487   -5.7385   56.7827 H       1  ZINC000435292384    0.0700
     39 H39       -12.7757   -4.6125   57.7912 H       1  ZINC000435292384    0.0900
     40 H40       -13.4854   -5.7503   55.0718 H       1  ZINC000435292384    0.0700
     41 H41       -14.4445   -5.7538   56.5686 H       1  ZINC000435292384    0.0800
     42 H42       -15.5082   -4.0451   55.4794 H       1  ZINC000435292384    0.0700
     43 H43       -14.2058   -3.1040   56.2464 H       1  ZINC000435292384    0.0600
     44 H44       -13.7496   -4.3867   53.5610 H       1  ZINC000435292384    0.0800
     45 H45       -14.6792   -2.8867   53.6554 H       1  ZINC000435292384    0.0600
     46 H46       -11.6252   -0.0337   53.2790 H       1  ZINC000435292384    0.0800
     47 H47       -10.2377   -1.1477   53.3246 H       1  ZINC000435292384    0.0800
     48 H48       -10.7643   -0.4449   51.7763 H       1  ZINC000435292384    0.1000
     49 H49       -10.5690   -3.0559   54.6114 H       1  ZINC000435292384    0.0900
     50 H50       -11.5050   -4.5371   54.3012 H       1  ZINC000435292384    0.0900
     51 H51       -13.2089   -1.7318   58.2147 H       1  ZINC000435292384    0.1100
     52 H52       -13.5122   -3.2882   59.0487 H       1  ZINC000435292384    0.1100
@<TRIPOS>BOND
     1     1     2    1
     2     1    26    1
     3     1    27    1
     4     1    28    1
     5     2     3    1
     6     2    29    1
     7     2    30    1
     8     3     4    1
     9     3    31    1
    10     3    32    1
    11     4     5    1
    12     4     6    1
    13     4     7    1
    14     6    33    1
    15     6    34    1
    16     6    35    1
    17     7    24   am
    18     7     8    1
    19     8     9    1
    20     8    36    1
    21     8    37    1
    22     9    10    1
    23     9    11    1
    24     9    23    1
    25    11    12    2
    26    11    13   am
    27    13    22    1
    28    13    14    1
    29    14    15    1
    30    14    38    1
    31    14    39    1
    32    15    16    1
    33    15    40    1
    34    15    41    1
    35    16    17    1
    36    16    42    1
    37    16    43    1
    38    17    18    1
    39    17    44    1
    40    17    45    1
    41    18    19    1
    42    18    20    1
    43    18    22    1
    44    20    21    1
    45    21    46    1
    46    21    47    1
    47    21    48    1
    48    22    49    1
    49    22    50    1
    50    23    24    1
    51    23    51    1
    52    23    52    1
    53    24    25    2
@<TRIPOS>SUBSTRUCTURE
     1 ZINC000435292384        1 TEMP              0 ****  ****    0 ROOT


##########                                Name:    ZINC000876376999
##########                DOCK_Rotatable_Bonds:                   7
##########                         Heavy_Atoms:                  24
##########                    Molecular_Weight:             358.502
##########                DOCK_Rotatable_Bonds:                   7
##########                       Formal_Charge:          -0.0299994
##########                     HBond_Acceptors:                   7
##########                        HBond_Donors:                   2
##########                         Heavy_Atoms:                  24
##########                          Grid_Score:          -29.010180
##########                     Grid_vdw_energy:          -27.207291
##########                      Grid_es_energy:           -1.802889
##########           Internal_energy_repulsive:           34.293705

@<TRIPOS>MOLECULE
ZINC000876376999
 54 56 1 0 0
SMALL
USER_CHARGES


@<TRIPOS>ATOM
      1 C1         -5.4287    2.2820   66.0945 C.3     1  ZINC000876376999   -0.1500
      2 C2         -6.0376    1.0411   66.7506 C.3     1  ZINC000876376999   -0.1100
      3 C3         -7.5561    1.0592   66.5648 C.3     1  ZINC000876376999   -0.0700
      4 C4         -8.1320   -0.3095   66.9336 C.3     1  ZINC000876376999    0.0900
      5 O5         -7.9941   -0.5210   68.3400 O.3     1  ZINC000876376999   -0.5600
      6 C6         -8.1687    2.1321   67.4680 C.3     1  ZINC000876376999   -0.1100
      7 C7         -9.6906    2.1287   67.3073 C.3     1  ZINC000876376999   -0.1400
      8 C8        -10.0473    2.4586   65.8544 C.3     1  ZINC000876376999    0.1100
      9 N9         -9.3450    1.5188   64.9700 N.am    1  ZINC000876376999   -0.6300
     10 C10       -10.0236    0.8007   64.0533 C.2     1  ZINC000876376999    0.7100
     11 O11       -11.2287    0.9271   63.9524 O.2     1  ZINC000876376999   -0.5800
     12 N12        -9.3663   -0.0578   63.2486 N.am    1  ZINC000876376999   -0.7500
     13 C13       -10.1039   -0.8384   62.2522 C.3     1  ZINC000876376999    0.1400
     14 C14        -9.8938   -0.2233   60.8632 C.3     1  ZINC000876376999   -0.1100
     15 C15        -9.0850   -1.1496   59.9964 C.3     1  ZINC000876376999   -0.1100
     16 C16        -9.8812   -2.0111   59.0092 C.3     1  ZINC000876376999   -0.5200
     17 H17        -9.2560   -2.6928   58.4158 H       1  ZINC000876376999    0.1500
     18 C18       -10.9822   -2.7419   59.8114 C.3     1  ZINC000876376999   -0.1200
     19 C19       -12.1965   -1.8447   60.0251 C.3     1  ZINC000876376999   -0.1200
     20 C20       -11.9861   -0.4557   59.3796 C.3     1  ZINC000876376999   -0.5300
     21 H21       -12.9252    0.0181   59.0614 H       1  ZINC000876376999    0.1500
     22 C22       -11.1722    0.3927   60.3636 C.3     1  ZINC000876376999   -0.1000
     23 S23       -10.8528   -0.8345   57.9786 S.o2    1  ZINC000876376999    2.3700
     24 O24       -10.0669    0.3049   57.6607 O.2     1  ZINC000876376999   -0.9300
     25 O25       -11.5513   -1.5373   56.9602 O.2     1  ZINC000876376999   -0.9300
     26 C26        -7.8886    1.3769   65.1035 C.3     1  ZINC000876376999    0.1400
     27 H27        -5.5920    2.2406   65.0176 H       1  ZINC000876376999    0.0500
     28 H28        -5.9018    3.1764   66.4997 H       1  ZINC000876376999    0.0600
     29 H29        -4.3585    2.3127   66.2988 H       1  ZINC000876376999    0.0500
     30 H30        -5.6254    0.1453   66.2863 H       1  ZINC000876376999    0.0600
     31 H31        -5.8018    1.0401   67.8148 H       1  ZINC000876376999    0.0700
     32 H32        -9.1872   -0.3446   66.6626 H       1  ZINC000876376999    0.0500
     33 H33        -7.5924   -1.0880   66.3943 H       1  ZINC000876376999    0.0400
     34 H34        -8.4506    0.1358   68.8833 H       1  ZINC000876376999    0.3800
     35 H35        -7.9127    1.9219   68.5065 H       1  ZINC000876376999    0.0700
     36 H36        -7.7761    3.1097   67.1882 H       1  ZINC000876376999    0.0700
     37 H37       -10.0812    1.1439   67.5631 H       1  ZINC000876376999    0.0700
     38 H38       -10.1279    2.8771   67.9681 H       1  ZINC000876376999    0.0800
     39 H39       -11.1234    2.3605   65.7111 H       1  ZINC000876376999    0.0700
     40 H40        -9.7372    3.4778   65.6244 H       1  ZINC000876376999    0.0700
     41 H41        -8.4050   -0.1588   63.3292 H       1  ZINC000876376999    0.3900
     42 H42        -9.7399   -1.8658   62.2534 H       1  ZINC000876376999    0.0800
     43 H43       -11.1661   -0.8290   62.4968 H       1  ZINC000876376999    0.0700
     44 H44        -9.2123    0.6519   61.0605 H       1  ZINC000876376999    0.0900
     45 H45        -8.3491   -0.5546   59.4277 H       1  ZINC000876376999    0.0900
     46 H46        -8.4898   -1.8172   60.6435 H       1  ZINC000876376999    0.0900
     47 H47       -11.2982   -3.6257   59.2486 H       1  ZINC000876376999    0.0800
     48 H48       -10.5893   -3.0685   60.7698 H       1  ZINC000876376999    0.0900
     49 H49       -13.0657   -2.3197   59.5597 H       1  ZINC000876376999    0.0800
     50 H50       -12.3940   -1.7348   61.0874 H       1  ZINC000876376999    0.0900
     51 H51       -11.8131    0.6385   61.2281 H       1  ZINC000876376999    0.0900
     52 H52       -10.9389    1.3591   59.8832 H       1  ZINC000876376999    0.0900
     53 H53        -7.4026    2.3081   64.8123 H       1  ZINC000876376999    0.0600
     54 H54        -7.5404    0.5652   64.4647 H       1  ZINC000876376999    0.1000
@<TRIPOS>BOND
     1     1     2    1
     2     1    27    1
     3     1    28    1
     4     1    29    1
     5     2     3    1
     6     2    30    1
     7     2    31    1
     8     3    26    1
     9     3     4    1
    10     3     6    1
    11     4     5    1
    12     4    32    1
    13     4    33    1
    14     5    34    1
    15     6     7    1
    16     6    35    1
    17     6    36    1
    18     7     8    1
    19     7    37    1
    20     7    38    1
    21     8     9    1
    22     8    39    1
    23     8    40    1
    24     9    10   am
    25     9    26    1
    26    10    11    2
    27    10    12   am
    28    12    13    1
    29    12    41    1
    30    13    14    1
    31    13    42    1
    32    13    43    1
    33    14    22    1
    34    14    15    1
    35    14    44    1
    36    15    16    1
    37    15    45    1
    38    15    46    1
    39    16    17    1
    40    16    23    1
    41    16    18    1
    42    18    19    1
    43    18    47    1
    44    18    48    1
    45    19    20    1
    46    19    49    1
    47    19    50    1
    48    20    21    1
    49    20    22    1
    50    20    23    1
    51    22    51    1
    52    22    52    1
    53    23    24    2
    54    23    25    2
    55    26    53    1
    56    26    54    1
@<TRIPOS>SUBSTRUCTURE
     1 ZINC000876376999        1 TEMP              0 ****  ****    0 ROOT


##########                                Name:    ZINC001135312623
##########                DOCK_Rotatable_Bonds:                   3
##########                         Heavy_Atoms:                  25
##########                    Molecular_Weight:             341.323
##########                DOCK_Rotatable_Bonds:                   3
##########                       Formal_Charge:        -1.78814e-07
##########                     HBond_Acceptors:                   8
##########                        HBond_Donors:                   2
##########                         Heavy_Atoms:                  25
##########                          Grid_Score:          -28.926861
##########                     Grid_vdw_energy:          -27.990379
##########                      Grid_es_energy:           -0.936482
##########           Internal_energy_repulsive:            5.147397

@<TRIPOS>MOLECULE
ZINC001135312623
 40 42 1 0 0
SMALL
USER_CHARGES


@<TRIPOS>ATOM
      1 C1        -10.5664    2.4214   61.7889 C.3     1  ZINC001135312623   -0.1300
      2 C2         -9.9340    1.8776   63.0439 C.ar    1  ZINC001135312623   -0.0600
      3 C3         -9.7608    2.6971   64.1417 C.ar    1  ZINC001135312623   -0.1000
      4 C4         -9.1800    2.1990   65.2938 C.ar    1  ZINC001135312623   -0.0300
      5 C5         -8.9925    3.0963   66.4899 C.3     1  ZINC001135312623   -0.1300
      6 C6         -8.7715    0.8793   65.3508 C.ar    1  ZINC001135312623   -0.0200
      7 N7         -8.1505    0.3503   66.5858 N.pl3   1  ZINC001135312623    0.0200
      8 O8         -7.2577   -0.4751   66.5132 O.2     1  ZINC001135312623   -0.1500
      9 O9         -8.5320    0.7404   67.6747 O.2     1  ZINC001135312623   -0.1500
     10 C10        -8.9428    0.0539   64.2566 C.ar    1  ZINC001135312623   -0.0700
     11 C11        -9.5299    0.5496   63.0998 C.ar    1  ZINC001135312623    0.1500
     12 N12        -9.7049   -0.2833   61.9902 N.am    1  ZINC001135312623   -0.6600
     13 C13       -10.8812   -0.9129   61.7990 C.2     1  ZINC001135312623    0.5600
     14 O14       -11.7903   -0.7566   62.5913 O.2     1  ZINC001135312623   -0.5000
     15 C15       -11.0658   -1.7917   60.6282 C.ar    1  ZINC001135312623   -0.1600
     16 C16        -9.9535   -2.3154   59.9639 C.ar    1  ZINC001135312623   -0.0400
     17 C17       -10.1265   -3.1354   58.8704 C.ar    1  ZINC001135312623   -0.1500
     18 C18       -11.4077   -3.4413   58.4295 C.ar    1  ZINC001135312623    0.2000
     19 N19       -11.6053   -4.2669   57.3224 N.am    1  ZINC001135312623   -0.6700
     20 C20       -12.8115   -4.2998   56.7212 C.2     1  ZINC001135312623    0.6600
     21 O21       -12.9891   -5.0377   55.7724 O.2     1  ZINC001135312623   -0.4900
     22 O22       -13.8209   -3.5258   57.1591 O.3     1  ZINC001135312623   -0.3400
     23 C23       -13.8967   -3.2742   58.5892 C.3     1  ZINC001135312623    0.1100
     24 C24       -12.5189   -2.9214   59.0915 C.ar    1  ZINC001135312623   -0.1800
     25 C25       -12.3547   -2.1068   60.1850 C.ar    1  ZINC001135312623    0.0000
     26 H26       -11.6467    2.2849   61.8378 H       1  ZINC001135312623    0.0900
     27 H27       -10.3381    3.4834   61.6976 H       1  ZINC001135312623    0.0800
     28 H28       -10.1719    1.8893   60.9232 H       1  ZINC001135312623    0.0700
     29 H29       -10.0788    3.7284   64.1004 H       1  ZINC001135312623    0.1500
     30 H30        -9.9065    3.1061   67.0836 H       1  ZINC001135312623    0.0900
     31 H31        -8.1681    2.7238   67.0979 H       1  ZINC001135312623    0.0800
     32 H32        -8.7671    4.1082   66.1531 H       1  ZINC001135312623    0.0800
     33 H33        -8.6235   -0.9769   64.3017 H       1  ZINC001135312623    0.1700
     34 H34        -8.9797   -0.4081   61.3582 H       1  ZINC001135312623    0.4200
     35 H35        -8.9577   -2.0771   60.3075 H       1  ZINC001135312623    0.1400
     36 H36        -9.2671   -3.5397   58.3565 H       1  ZINC001135312623    0.1500
     37 H37       -10.8783   -4.8144   56.9868 H       1  ZINC001135312623    0.4300
     38 H38       -14.5785   -2.4452   58.7789 H       1  ZINC001135312623    0.1300
     39 H39       -14.2541   -4.1687   59.0994 H       1  ZINC001135312623    0.1000
     40 H40       -13.2172   -1.7078   60.6982 H       1  ZINC001135312623    0.1500
@<TRIPOS>BOND
     1     1     2    1
     2     1    26    1
     3     1    27    1
     4     1    28    1
     5     2    11   ar
     6     2     3   ar
     7     3     4   ar
     8     3    29    1
     9     4     5    1
    10     4     6   ar
    11     5    30    1
    12     5    31    1
    13     5    32    1
    14     6     7    1
    15     6    10   ar
    16     7     8    2
    17     7     9    2
    18    10    11   ar
    19    10    33    1
    20    11    12    1
    21    12    13   am
    22    12    34    1
    23    13    14    2
    24    13    15    1
    25    15    25   ar
    26    15    16   ar
    27    16    17   ar
    28    16    35    1
    29    17    18   ar
    30    17    36    1
    31    18    24   ar
    32    18    19    1
    33    19    20   am
    34    19    37    1
    35    20    21    2
    36    20    22    1
    37    22    23    1
    38    23    24    1
    39    23    38    1
    40    23    39    1
    41    24    25   ar
    42    25    40    1
@<TRIPOS>SUBSTRUCTURE
     1 ZINC001135312623        1 TEMP              0 ****  ****    0 ROOT


##########                                Name:    ZINC000187810810
##########                DOCK_Rotatable_Bonds:                   7
##########                         Heavy_Atoms:                  27
##########                    Molecular_Weight:             386.414
##########                DOCK_Rotatable_Bonds:                   7
##########                       Formal_Charge:           0.0599998
##########                     HBond_Acceptors:                   8
##########                        HBond_Donors:                   1
##########                         Heavy_Atoms:                  27
##########                          Grid_Score:          -28.912611
##########                     Grid_vdw_energy:          -28.178503
##########                      Grid_es_energy:           -0.734108
##########           Internal_energy_repulsive:           48.530052

@<TRIPOS>MOLECULE
ZINC000187810810
 52 53 1 0 0
SMALL
USER_CHARGES


@<TRIPOS>ATOM
      1 C1        -10.5166    1.1627   59.2653 C.3     1  ZINC000187810810   -0.1800
      2 C2        -10.9879    0.5818   60.6000 C.3     1  ZINC000187810810    0.1400
      3 C3         -9.7951    0.4516   61.5492 C.3     1  ZINC000187810810   -0.1800
      4 C4        -12.0337    1.5109   61.2195 C.3     1  ZINC000187810810   -0.1400
      5 O5        -11.5747   -0.7276   60.3776 O.3     1  ZINC000187810810   -0.3600
      6 C6        -11.0414   -1.4776   59.3949 C.2     1  ZINC000187810810    0.6500
      7 O7         -9.8420   -1.6694   59.3599 O.2     1  ZINC000187810810   -0.5600
      8 N8        -11.8377   -2.0156   58.4500 N.am    1  ZINC000187810810   -0.6000
      9 C9        -13.2888   -1.7860   58.4746 C.3     1  ZINC000187810810    0.1100
     10 C10       -14.0030   -3.1406   58.4327 C.3     1  ZINC000187810810   -0.1400
     11 C11       -13.5125   -3.9341   57.2194 C.3     1  ZINC000187810810    0.1800
     12 C12       -14.2491   -5.2737   57.1549 C.3     1  ZINC000187810810   -0.1600
     13 N13       -13.7787   -3.1714   55.9973 N.am    1  ZINC000187810810   -0.7100
     14 C14       -13.4780   -3.6996   54.7944 C.2     1  ZINC000187810810    0.5500
     15 O15       -12.9844   -4.8081   54.7235 O.2     1  ZINC000187810810   -0.5100
     16 C16       -13.7482   -2.9305   53.5609 C.ar    1  ZINC000187810810   -0.0900
     17 C17       -15.0412   -2.4857   53.2814 C.ar    1  ZINC000187810810   -0.0900
     18 C18       -15.2866   -1.7681   52.1288 C.ar    1  ZINC000187810810   -0.0900
     19 C19       -14.2543   -1.4897   51.2508 C.ar    1  ZINC000187810810   -0.0900
     20 C20       -12.9701   -1.9282   51.5217 C.ar    1  ZINC000187810810   -0.0800
     21 C21       -12.7101   -2.6412   52.6735 C.ar    1  ZINC000187810810   -0.1300
     22 C22       -11.3109   -3.1176   52.9673 C.3     1  ZINC000187810810    0.5200
     23 F23       -10.4192   -2.5313   52.0626 F       1  ZINC000187810810   -0.1800
     24 F24       -10.9585   -2.7539   54.2714 F       1  ZINC000187810810   -0.1600
     25 F25       -11.2559   -4.5098   52.8404 F       1  ZINC000187810810   -0.1600
     26 C26       -12.0081   -4.1850   57.3460 C.3     1  ZINC000187810810   -0.1500
     27 C27       -11.2706   -2.8376   57.3724 C.3     1  ZINC000187810810    0.1300
     28 H28        -9.7715    0.5008   58.8238 H       1  ZINC000187810810    0.0900
     29 H29       -11.3664    1.2554   58.5891 H       1  ZINC000187810810    0.0600
     30 H30       -10.0761    2.1456   59.4322 H       1  ZINC000187810810    0.0700
     31 H31        -9.3546    1.4345   61.7161 H       1  ZINC000187810810    0.0700
     32 H32       -10.1309    0.0378   62.5001 H       1  ZINC000187810810    0.0600
     33 H33        -9.0500   -0.2103   61.1078 H       1  ZINC000187810810    0.0900
     34 H34       -12.8836    1.6036   60.5433 H       1  ZINC000187810810    0.0700
     35 H35       -12.3695    1.0970   62.1704 H       1  ZINC000187810810    0.0700
     36 H36       -11.5932    2.4938   61.3864 H       1  ZINC000187810810    0.0800
     37 H37       -13.5598   -1.2581   59.3888 H       1  ZINC000187810810    0.1000
     38 H38       -13.5795   -1.1927   57.6076 H       1  ZINC000187810810    0.0700
     39 H39       -13.7827   -3.6963   59.3441 H       1  ZINC000187810810    0.0900
     40 H40       -15.0785   -2.9825   58.3534 H       1  ZINC000187810810    0.0900
     41 H41       -15.3204   -5.0951   57.0634 H       1  ZINC000187810810    0.0600
     42 H42       -13.8999   -5.8390   56.2908 H       1  ZINC000187810810    0.0800
     43 H43       -14.0515   -5.8411   58.0643 H       1  ZINC000187810810    0.0700
     44 H44       -14.1715   -2.2863   56.0539 H       1  ZINC000187810810    0.4000
     45 H45       -15.8480   -2.7030   53.9658 H       1  ZINC000187810810    0.1400
     46 H46       -16.2867   -1.4234   51.9113 H       1  ZINC000187810810    0.1400
     47 H47       -14.4518   -0.9280   50.3498 H       1  ZINC000187810810    0.1400
     48 H48       -12.1688   -1.7078   50.8320 H       1  ZINC000187810810    0.1500
     49 H49       -11.8067   -4.7309   58.2678 H       1  ZINC000187810810    0.0800
     50 H50       -11.6639   -4.7702   56.4933 H       1  ZINC000187810810    0.1000
     51 H51       -11.3978   -2.3327   56.4148 H       1  ZINC000187810810    0.0700
     52 H52       -10.2103   -3.0051   57.5616 H       1  ZINC000187810810    0.1000
@<TRIPOS>BOND
     1     1     2    1
     2     1    28    1
     3     1    29    1
     4     1    30    1
     5     2     3    1
     6     2     4    1
     7     2     5    1
     8     3    31    1
     9     3    32    1
    10     3    33    1
    11     4    34    1
    12     4    35    1
    13     4    36    1
    14     5     6    1
    15     6     7    2
    16     6     8   am
    17     8    27    1
    18     8     9    1
    19     9    10    1
    20     9    37    1
    21     9    38    1
    22    10    11    1
    23    10    39    1
    24    10    40    1
    25    11    12    1
    26    11    13    1
    27    11    26    1
    28    12    41    1
    29    12    42    1
    30    12    43    1
    31    13    14   am
    32    13    44    1
    33    14    15    2
    34    14    16    1
    35    16    21   ar
    36    16    17   ar
    37    17    18   ar
    38    17    45    1
    39    18    19   ar
    40    18    46    1
    41    19    20   ar
    42    19    47    1
    43    20    21   ar
    44    20    48    1
    45    21    22    1
    46    22    23    1
    47    22    24    1
    48    22    25    1
    49    26    27    1
    50    26    49    1
    51    26    50    1
    52    27    51    1
    53    27    52    1
@<TRIPOS>SUBSTRUCTURE
     1 ZINC000187810810        1 TEMP              0 ****  ****    0 ROOT


##########                                Name:    ZINC000469435497
##########                DOCK_Rotatable_Bonds:                   6
##########                         Heavy_Atoms:                  27
##########                    Molecular_Weight:             364.444
##########                DOCK_Rotatable_Bonds:                   6
##########                       Formal_Charge:           0.0300001
##########                     HBond_Acceptors:                   5
##########                        HBond_Donors:                   2
##########                         Heavy_Atoms:                  27
##########                          Grid_Score:          -28.891912
##########                     Grid_vdw_energy:          -27.913332
##########                      Grid_es_energy:           -0.978581
##########           Internal_energy_repulsive:            4.248296

@<TRIPOS>MOLECULE
ZINC000469435497
 51 54 1 0 0
SMALL
USER_CHARGES


@<TRIPOS>ATOM
      1 C1         -0.7620    0.3503   46.4773 C.3     1  ZINC000469435497   -0.1600
      2 C2         -1.6009    1.6283   46.4167 C.3     1  ZINC000469435497    0.1000
      3 C3         -1.9688    1.9646   44.9702 C.3     1  ZINC000469435497   -0.1400
      4 C4         -2.8694    1.4932   47.2919 C.3     1  ZINC000469435497   -0.1000
      5 C5         -2.4049    2.0809   48.6105 C.ar    1  ZINC000469435497   -0.1500
      6 C6         -2.9292    2.0239   49.8820 C.ar    1  ZINC000469435497   -0.0700
      7 C7         -2.2775    2.6628   50.9299 C.ar    1  ZINC000469435497    0.1100
      8 N8         -2.8060    2.6082   52.2263 N.am    1  ZINC000469435497   -0.6600
      9 C9         -3.6071    3.5972   52.6696 C.2     1  ZINC000469435497    0.5100
     10 O10        -3.8704    4.5346   51.9463 O.2     1  ZINC000469435497   -0.5200
     11 C11        -4.1757    3.5386   54.0640 C.3     1  ZINC000469435497    0.1000
     12 N12        -3.0809    3.5062   55.0369 N.am    1  ZINC000469435497   -0.7200
     13 C13        -3.2249    2.8254   56.1910 C.2     1  ZINC000469435497    0.5700
     14 O14        -4.2637    2.2393   56.4253 O.2     1  ZINC000469435497   -0.5300
     15 C15        -2.1193    2.7912   57.1720 C.ar    1  ZINC000469435497   -0.1400
     16 C16        -1.0213    3.6393   57.0216 C.ar    1  ZINC000469435497   -0.0800
     17 C17         0.0049    3.6006   57.9412 C.ar    1  ZINC000469435497   -0.1100
     18 C18        -0.0471    2.7244   59.0142 C.ar    1  ZINC000469435497   -0.0700
     19 C19         0.9400    2.4971   60.1398 C.3     1  ZINC000469435497   -0.0900
     20 C20         0.1452    1.7465   61.2291 C.3     1  ZINC000469435497   -0.1200
     21 C21        -0.9484    1.0310   60.4081 C.3     1  ZINC000469435497   -0.0800
     22 C22        -1.1334    1.8806   59.1688 C.ar    1  ZINC000469435497   -0.1100
     23 C23        -2.1704    1.9152   58.2562 C.ar    1  ZINC000469435497   -0.0400
     24 C24        -1.0995    3.3553   50.6848 C.ar    1  ZINC000469435497   -0.1000
     25 C25        -0.5795    3.4133   49.4088 C.ar    1  ZINC000469435497   -0.1200
     26 C26        -1.2303    2.7774   48.3547 C.ar    1  ZINC000469435497    0.1000
     27 O27        -0.9042    2.7246   47.0331 O.3     1  ZINC000469435497   -0.3000
     28 H28        -0.5375    0.1119   47.5171 H       1  ZINC000469435497    0.0600
     29 H29        -1.3194   -0.4718   46.0284 H       1  ZINC000469435497    0.0800
     30 H30         0.1685    0.5001   45.9298 H       1  ZINC000469435497    0.0700
     31 H31        -2.5553    1.1497   44.5457 H       1  ZINC000469435497    0.0800
     32 H32        -2.5547    2.8835   44.9485 H       1  ZINC000469435497    0.0700
     33 H33        -1.0587    2.1001   44.3860 H       1  ZINC000469435497    0.0700
     34 H34        -3.6932    2.0731   46.8757 H       1  ZINC000469435497    0.0900
     35 H35        -3.1518    0.4470   47.4095 H       1  ZINC000469435497    0.0900
     36 H36        -3.8463    1.4837   50.0649 H       1  ZINC000469435497    0.1400
     37 H37        -2.5956    1.8585   52.8048 H       1  ZINC000469435497    0.4200
     38 H38        -4.7937    4.4187   54.2416 H       1  ZINC000469435497    0.1100
     39 H39        -4.7835    2.6401   54.1710 H       1  ZINC000469435497    0.1100
     40 H40        -2.2523    3.9749   54.8504 H       1  ZINC000469435497    0.4100
     41 H41        -0.9756    4.3237   56.1874 H       1  ZINC000469435497    0.1300
     42 H42         0.8549    4.2567   57.8248 H       1  ZINC000469435497    0.1300
     43 H43         1.7749    1.8880   59.7933 H       1  ZINC000469435497    0.0900
     44 H44         1.3009    3.4510   60.5246 H       1  ZINC000469435497    0.0800
     45 H45         0.7793    1.0238   61.7426 H       1  ZINC000469435497    0.0800
     46 H46        -0.2978    2.4468   61.9371 H       1  ZINC000469435497    0.0700
     47 H47        -0.6203    0.0284   60.1339 H       1  ZINC000469435497    0.0800
     48 H48        -1.8774    0.9835   60.9762 H       1  ZINC000469435497    0.0800
     49 H49        -3.0203    1.2604   58.3806 H       1  ZINC000469435497    0.1400
     50 H50        -0.5883    3.8510   51.4968 H       1  ZINC000469435497    0.1400
     51 H51         0.3372    3.9543   49.2262 H       1  ZINC000469435497    0.1300
@<TRIPOS>BOND
     1     1     2    1
     2     1    28    1
     3     1    29    1
     4     1    30    1
     5     2    27    1
     6     2     3    1
     7     2     4    1
     8     3    31    1
     9     3    32    1
    10     3    33    1
    11     4     5    1
    12     4    34    1
    13     4    35    1
    14     5    26   ar
    15     5     6   ar
    16     6     7   ar
    17     6    36    1
    18     7     8    1
    19     7    24   ar
    20     8     9   am
    21     8    37    1
    22     9    10    2
    23     9    11    1
    24    11    12    1
    25    11    38    1
    26    11    39    1
    27    12    13   am
    28    12    40    1
    29    13    14    2
    30    13    15    1
    31    15    23   ar
    32    15    16   ar
    33    16    17   ar
    34    16    41    1
    35    17    18   ar
    36    17    42    1
    37    18    22   ar
    38    18    19    1
    39    19    20    1
    40    19    43    1
    41    19    44    1
    42    20    21    1
    43    20    45    1
    44    20    46    1
    45    21    22    1
    46    21    47    1
    47    21    48    1
    48    22    23   ar
    49    23    49    1
    50    24    25   ar
    51    24    50    1
    52    25    26   ar
    53    25    51    1
    54    26    27    1
@<TRIPOS>SUBSTRUCTURE
     1 ZINC000469435497        1 TEMP              0 ****  ****    0 ROOT


##########                                Name:    ZINC000055987960
##########                DOCK_Rotatable_Bonds:                   6
##########                         Heavy_Atoms:                  28
##########                    Molecular_Weight:             404.868
##########                DOCK_Rotatable_Bonds:                   6
##########                       Formal_Charge:          0.00999941
##########                     HBond_Acceptors:                   7
##########                        HBond_Donors:                   1
##########                         Heavy_Atoms:                  28
##########                          Grid_Score:          -28.871817
##########                     Grid_vdw_energy:          -27.802568
##########                      Grid_es_energy:           -1.069248
##########           Internal_energy_repulsive:           12.650372

@<TRIPOS>MOLECULE
ZINC000055987960
 50 52 1 0 0
SMALL
USER_CHARGES


@<TRIPOS>ATOM
      1 C1        -15.6894   -2.4782   53.3793 C.3     1  ZINC000055987960   -0.1800
      2 C2        -15.1325   -1.0929   53.0452 C.3     1  ZINC000055987960    0.0700
      3 H3        -15.6893   -0.3344   53.5955 H       1  ZINC000055987960    0.1200
      4 C4        -13.6524   -1.0276   53.4385 C.3     1  ZINC000055987960    0.0800
      5 N5        -12.8966   -1.9272   52.5526 N.am    1  ZINC000055987960   -0.6100
      6 C6        -12.0420   -2.8397   53.0559 C.2     1  ZINC000055987960    0.5700
      7 O7        -11.4267   -3.5742   52.3074 O.2     1  ZINC000055987960   -0.5300
      8 C8        -11.8530   -2.9476   54.5158 C.ar    1  ZINC000055987960   -0.1500
      9 C9        -12.5296   -3.9339   55.2385 C.ar    1  ZINC000055987960   -0.0700
     10 C10       -12.3508   -4.0320   56.6000 C.ar    1  ZINC000055987960   -0.1500
     11 C11       -11.4976   -3.1505   57.2565 C.ar    1  ZINC000055987960    0.1700
     12 N12       -11.3184   -3.2530   58.6354 N.am    1  ZINC000055987960   -0.6700
     13 C13       -11.9043   -2.3616   59.4592 C.2     1  ZINC000055987960    0.5200
     14 O14       -12.5873   -1.4702   59.0010 O.2     1  ZINC000055987960   -0.5000
     15 C15       -11.7107   -2.4722   60.9496 C.3     1  ZINC000055987960   -0.1100
     16 C16       -11.4796   -1.1006   61.5294 C.ar    1  ZINC000055987960   -0.1000
     17 C17       -10.2397   -0.4976   61.4087 C.ar    1  ZINC000055987960    0.1300
     18 F18        -9.2357   -1.1385   60.7710 F       1  ZINC000055987960   -0.1300
     19 C19       -10.0288    0.7631   61.9416 C.ar    1  ZINC000055987960   -0.1500
     20 C20       -11.0559    1.4184   62.5933 C.ar    1  ZINC000055987960   -0.0700
     21 C21       -12.2946    0.8162   62.7140 C.ar    1  ZINC000055987960   -0.1200
     22 C22       -12.5085   -0.4410   62.1777 C.ar    1  ZINC000055987960    0.0000
     23 Cl23      -14.0644   -1.1960   62.3292 Cl      1  ZINC000055987960   -0.0500
     24 C24       -10.8225   -2.1674   56.5399 C.ar    1  ZINC000055987960   -0.1200
     25 C25       -10.9928   -2.0672   55.1775 C.ar    1  ZINC000055987960   -0.0500
     26 C26       -13.1019   -1.8014   51.1009 C.3     1  ZINC000055987960    0.0600
     27 C27       -14.6089   -1.8291   50.8215 C.3     1  ZINC000055987960    0.0700
     28 H28       -15.0037   -2.8187   51.0515 H       1  ZINC000055987960    0.0700
     29 C29       -14.8613   -1.5082   49.3470 C.3     1  ZINC000055987960   -0.1500
     30 O30       -15.2587   -0.8534   51.6415 O.3     1  ZINC000055987960   -0.3700
     31 H31       -15.1323   -3.2363   52.8288 H       1  ZINC000055987960    0.0600
     32 H32       -15.5913   -2.6609   54.4495 H       1  ZINC000055987960    0.0700
     33 H33       -16.7414   -2.5245   53.0978 H       1  ZINC000055987960    0.0700
     34 H34       -13.2868   -0.0071   53.3239 H       1  ZINC000055987960    0.0800
     35 H35       -13.5332   -1.3465   54.4739 H       1  ZINC000055987960    0.1000
     36 H36       -13.1923   -4.6182   54.7296 H       1  ZINC000055987960    0.1400
     37 H37       -12.8737   -4.7938   57.1593 H       1  ZINC000055987960    0.1300
     38 H38       -10.7721   -3.9658   59.0019 H       1  ZINC000055987960    0.4200
     39 H39       -12.6008   -2.9119   61.3999 H       1  ZINC000055987960    0.1200
     40 H40       -10.8479   -3.1049   61.1580 H       1  ZINC000055987960    0.1200
     41 H41        -9.0613    1.2340   61.8480 H       1  ZINC000055987960    0.1500
     42 H42       -10.8910    2.4014   63.0091 H       1  ZINC000055987960    0.1500
     43 H43       -13.0966    1.3290   63.2239 H       1  ZINC000055987960    0.1400
     44 H44       -10.1612   -1.4845   57.0525 H       1  ZINC000055987960    0.1500
     45 H45       -10.4684   -1.3039   54.6217 H       1  ZINC000055987960    0.1300
     46 H46       -12.6809   -0.8589   50.7509 H       1  ZINC000055987960    0.0800
     47 H47       -12.6182   -2.6329   50.5883 H       1  ZINC000055987960    0.1100
     48 H48       -14.3629   -2.2502   48.7232 H       1  ZINC000055987960    0.0700
     49 H49       -15.9330   -1.5280   49.1491 H       1  ZINC000055987960    0.0700
     50 H50       -14.4679   -0.5177   49.1182 H       1  ZINC000055987960    0.0700
@<TRIPOS>BOND
     1     1     2    1
     2     1    31    1
     3     1    32    1
     4     1    33    1
     5     2     3    1
     6     2    30    1
     7     2     4    1
     8     4     5    1
     9     4    34    1
    10     4    35    1
    11     5     6   am
    12     5    26    1
    13     6     7    2
    14     6     8    1
    15     8    25   ar
    16     8     9   ar
    17     9    10   ar
    18     9    36    1
    19    10    11   ar
    20    10    37    1
    21    11    12    1
    22    11    24   ar
    23    12    13   am
    24    12    38    1
    25    13    14    2
    26    13    15    1
    27    15    16    1
    28    15    39    1
    29    15    40    1
    30    16    22   ar
    31    16    17   ar
    32    17    18    1
    33    17    19   ar
    34    19    20   ar
    35    19    41    1
    36    20    21   ar
    37    20    42    1
    38    21    22   ar
    39    21    43    1
    40    22    23    1
    41    24    25   ar
    42    24    44    1
    43    25    45    1
    44    26    27    1
    45    26    46    1
    46    26    47    1
    47    27    28    1
    48    27    29    1
    49    27    30    1
    50    29    48    1
    51    29    49    1
    52    29    50    1
@<TRIPOS>SUBSTRUCTURE
     1 ZINC000055987960        1 TEMP              0 ****  ****    0 ROOT


##########                                Name:    ZINC000840649129
##########                DOCK_Rotatable_Bonds:                   8
##########                         Heavy_Atoms:                  26
##########                    Molecular_Weight:             376.839
##########                DOCK_Rotatable_Bonds:                   8
##########                       Formal_Charge:          -0.0199998
##########                     HBond_Acceptors:                   7
##########                        HBond_Donors:                   3
##########                         Heavy_Atoms:                  26
##########                          Grid_Score:          -28.790361
##########                     Grid_vdw_energy:          -28.149258
##########                      Grid_es_energy:           -0.641103
##########           Internal_energy_repulsive:           14.948661

@<TRIPOS>MOLECULE
ZINC000840649129
 47 48 1 0 0
SMALL
USER_CHARGES


@<TRIPOS>ATOM
      1 C1         -9.0600   -3.5053   59.6625 C.3     1  ZINC000840649129    0.0200
      2 O2        -10.1484   -2.6340   59.3489 O.3     1  ZINC000840649129   -0.2900
      3 C3         -9.9817   -1.7943   58.2955 C.ar    1  ZINC000840649129    0.1400
      4 C4         -9.0126   -0.8040   58.3430 C.ar    1  ZINC000840649129   -0.1700
      5 C5         -8.8416    0.0511   57.2728 C.ar    1  ZINC000840649129   -0.1200
      6 C6         -9.6382   -0.0738   56.1395 C.ar    1  ZINC000840649129    0.1700
      7 N7         -9.4573    0.7977   55.0594 N.pl3   1  ZINC000840649129   -0.8800
      8 C8        -10.6093   -1.0583   56.0772 C.ar    1  ZINC000840649129   -0.1000
      9 C9        -10.7851   -1.9301   57.1549 C.ar    1  ZINC000840649129   -0.1200
     10 C10       -11.8166   -2.9816   57.0964 C.2     1  ZINC000840649129    0.5100
     11 O11       -11.5475   -4.0713   56.6309 O.2     1  ZINC000840649129   -0.4800
     12 O12       -13.0577   -2.7343   57.5591 O.3     1  ZINC000840649129   -0.3200
     13 C13       -14.1571   -3.4056   56.8887 C.3     1  ZINC000840649129    0.0800
     14 H14       -13.9619   -4.4774   56.8549 H       1  ZINC000840649129    0.1200
     15 C15       -14.2886   -2.8743   55.4846 C.2     1  ZINC000840649129    0.5200
     16 O16       -13.7771   -1.8159   55.1862 O.2     1  ZINC000840649129   -0.4900
     17 N17       -14.9746   -3.5755   54.5604 N.am    1  ZINC000840649129   -0.6600
     18 C18       -15.0969   -3.0821   53.2561 C.ar    1  ZINC000840649129    0.1600
     19 C19       -13.9839   -2.5817   52.5947 C.ar    1  ZINC000840649129   -0.1400
     20 C20       -14.1075   -2.0958   51.3072 C.ar    1  ZINC000840649129   -0.0900
     21 C21       -15.3380   -2.1074   50.6770 C.ar    1  ZINC000840649129   -0.1300
     22 C22       -16.4495   -2.6047   51.3328 C.ar    1  ZINC000840649129   -0.0900
     23 C23       -16.3318   -3.0975   52.6184 C.ar    1  ZINC000840649129   -0.0700
     24 Cl24      -17.7271   -3.7222   53.4410 Cl      1  ZINC000840649129   -0.0700
     25 C25       -15.4558   -3.1475   57.6554 C.3     1  ZINC000840649129   -0.1100
     26 C26       -15.4298   -3.9187   58.9765 C.3     1  ZINC000840649129   -0.1600
     27 C27       -15.5902   -1.6505   57.9414 C.3     1  ZINC000840649129   -0.1500
     28 H28        -9.3237   -4.1211   60.5225 H       1  ZINC000840649129    0.1000
     29 H29        -8.8501   -4.1470   58.8069 H       1  ZINC000840649129    0.0600
     30 H30        -8.1761   -2.9124   59.8977 H       1  ZINC000840649129    0.0600
     31 H31        -8.3904   -0.7009   59.2196 H       1  ZINC000840649129    0.1400
     32 H32        -8.0854    0.8211   57.3159 H       1  ZINC000840649129    0.1300
     33 H33        -8.7770    1.4878   55.1017 H       1  ZINC000840649129    0.4000
     34 H34       -10.0123    0.7117   54.2686 H       1  ZINC000840649129    0.4000
     35 H35       -11.2270   -1.1546   55.1966 H       1  ZINC000840649129    0.1400
     36 H36       -15.3836   -4.4221   54.7990 H       1  ZINC000840649129    0.4200
     37 H37       -13.0222   -2.5718   53.0860 H       1  ZINC000840649129    0.1700
     38 H38       -13.2417   -1.7061   50.7924 H       1  ZINC000840649129    0.1300
     39 H39       -15.4315   -1.7269   49.6706 H       1  ZINC000840649129    0.1300
     40 H40       -17.4095   -2.6121   50.8380 H       1  ZINC000840649129    0.1400
     41 H41       -16.3034   -3.4806   57.0567 H       1  ZINC000840649129    0.0900
     42 H42       -14.5153   -3.6794   59.5192 H       1  ZINC000840649129    0.0700
     43 H43       -16.2938   -3.6372   59.5786 H       1  ZINC000840649129    0.0800
     44 H44       -15.4620   -4.9891   58.7730 H       1  ZINC000840649129    0.0600
     45 H45       -15.6087   -1.1010   57.0001 H       1  ZINC000840649129    0.0500
     46 H46       -16.5154   -1.4666   58.4876 H       1  ZINC000840649129    0.0600
     47 H47       -14.7425   -1.3173   58.5400 H       1  ZINC000840649129    0.0700
@<TRIPOS>BOND
     1     1     2    1
     2     1    28    1
     3     1    29    1
     4     1    30    1
     5     2     3    1
     6     3     9   ar
     7     3     4   ar
     8     4     5   ar
     9     4    31    1
    10     5     6   ar
    11     5    32    1
    12     6     7    1
    13     6     8   ar
    14     7    33    1
    15     7    34    1
    16     8     9   ar
    17     8    35    1
    18     9    10    1
    19    10    11    2
    20    10    12    1
    21    12    13    1
    22    13    14    1
    23    13    15    1
    24    13    25    1
    25    15    16    2
    26    15    17   am
    27    17    18    1
    28    17    36    1
    29    18    23   ar
    30    18    19   ar
    31    19    20   ar
    32    19    37    1
    33    20    21   ar
    34    20    38    1
    35    21    22   ar
    36    21    39    1
    37    22    23   ar
    38    22    40    1
    39    23    24    1
    40    25    26    1
    41    25    27    1
    42    25    41    1
    43    26    42    1
    44    26    43    1
    45    26    44    1
    46    27    45    1
    47    27    46    1
    48    27    47    1
@<TRIPOS>SUBSTRUCTURE
     1 ZINC000840649129        1 TEMP              0 ****  ****    0 ROOT


##########                                Name:    ZINC001625935330
##########                DOCK_Rotatable_Bonds:                   5
##########                         Heavy_Atoms:                  25
##########                    Molecular_Weight:             327.385
##########                DOCK_Rotatable_Bonds:                   5
##########                       Formal_Charge:           0.0199995
##########                     HBond_Acceptors:                   4
##########                        HBond_Donors:                   1
##########                         Heavy_Atoms:                  25
##########                          Grid_Score:          -28.779095
##########                     Grid_vdw_energy:          -28.505306
##########                      Grid_es_energy:           -0.273788
##########           Internal_energy_repulsive:           16.250315

@<TRIPOS>MOLECULE
ZINC001625935330
 42 44 1 0 0
SMALL
USER_CHARGES


@<TRIPOS>ATOM
      1 C1        -10.2943    2.4022   52.9416 C.3     1  ZINC001625935330   -0.1600
      2 C2         -9.1408    1.7363   53.6947 C.3     1  ZINC001625935330    0.1800
      3 H3         -8.4649    2.5023   54.0749 H       1  ZINC001625935330    0.1000
      4 N4         -9.6742    0.9563   54.8142 N.am    1  ZINC001625935330   -0.7100
      5 C5         -8.9313    0.7756   55.9241 C.2     1  ZINC001625935330    0.5800
      6 O6         -7.8184    1.2584   55.9956 O.2     1  ZINC001625935330   -0.5300
      7 C7         -9.4714   -0.0118   57.0571 C.ar    1  ZINC001625935330    0.0800
      8 C8        -10.8231   -0.3369   57.0871 C.ar    1  ZINC001625935330   -0.1000
      9 C9        -11.3157   -1.0807   58.1630 C.ar    1  ZINC001625935330    0.0000
     10 C10       -12.7502   -1.4519   58.2385 C.ar    1  ZINC001625935330   -0.0600
     11 C11       -13.6272   -1.0638   57.2276 C.ar    1  ZINC001625935330   -0.1000
     12 C12       -14.9605   -1.4123   57.3027 C.ar    1  ZINC001625935330   -0.1200
     13 C13       -15.4267   -2.1456   58.3789 C.ar    1  ZINC001625935330   -0.1100
     14 C14       -14.5606   -2.5336   59.3854 C.ar    1  ZINC001625935330   -0.1200
     15 C15       -13.2244   -2.1951   59.3178 C.ar    1  ZINC001625935330   -0.1000
     16 C16       -10.4219   -1.4655   59.1652 C.ar    1  ZINC001625935330   -0.1400
     17 C17        -9.0914   -1.1010   59.0599 C.ar    1  ZINC001625935330    0.1100
     18 N18        -8.6585   -0.4046   58.0312 N.ar    1  ZINC001625935330   -0.4600
     19 C19        -8.3905    0.8237   52.7591 C.ar    1  ZINC001625935330   -0.0900
     20 C20        -8.8107   -0.4827   52.5848 C.ar    1  ZINC001625935330   -0.0800
     21 C21        -8.1275   -1.3274   51.7276 C.ar    1  ZINC001625935330   -0.1100
     22 C22        -7.0222   -0.8711   51.0403 C.ar    1  ZINC001625935330   -0.0700
     23 C23        -6.5928    0.4467   51.2112 C.ar    1  ZINC001625935330   -0.0200
     24 C24        -5.4461    0.9274   50.5008 C.1     1  ZINC001625935330    0.2500
     25 N25        -4.5363    1.3087   49.9373 N.1     1  ZINC001625935330   -0.4100
     26 C26        -7.2896    1.2950   52.0739 C.ar    1  ZINC001625935330   -0.0600
     27 H27        -9.8975    2.9826   52.1087 H       1  ZINC001625935330    0.0700
     28 H28       -10.9702    1.6363   52.5615 H       1  ZINC001625935330    0.0600
     29 H29       -10.8370    3.0622   53.6184 H       1  ZINC001625935330    0.0700
     30 H30       -10.5620    0.5700   54.7567 H       1  ZINC001625935330    0.4100
     31 H31       -11.4816   -0.0197   56.2920 H       1  ZINC001625935330    0.1500
     32 H32       -13.2643   -0.4909   56.3870 H       1  ZINC001625935330    0.1300
     33 H33       -15.6411   -1.1117   56.5199 H       1  ZINC001625935330    0.1300
     34 H34       -16.4709   -2.4159   58.4340 H       1  ZINC001625935330    0.1300
     35 H35       -14.9300   -3.1057   60.2235 H       1  ZINC001625935330    0.1300
     36 H36       -12.5489   -2.4988   60.1039 H       1  ZINC001625935330    0.1300
     37 H37       -10.7655   -2.0406   60.0123 H       1  ZINC001625935330    0.1400
     38 H38        -8.3966   -1.3959   59.8324 H       1  ZINC001625935330    0.1700
     39 H39        -9.6755   -0.8451   53.1205 H       1  ZINC001625935330    0.1300
     40 H40        -8.4605   -2.3464   51.5967 H       1  ZINC001625935330    0.1400
     41 H41        -6.4897   -1.5315   50.3720 H       1  ZINC001625935330    0.1400
     42 H42        -6.9628    2.3152   52.2105 H       1  ZINC001625935330    0.1400
@<TRIPOS>BOND
     1     1     2    1
     2     1    27    1
     3     1    28    1
     4     1    29    1
     5     2     3    1
     6     2     4    1
     7     2    19    1
     8     4     5   am
     9     4    30    1
    10     5     6    2
    11     5     7    1
    12     7    18   ar
    13     7     8   ar
    14     8     9   ar
    15     8    31    1
    16     9    10    1
    17     9    16   ar
    18    10    15   ar
    19    10    11   ar
    20    11    12   ar
    21    11    32    1
    22    12    13   ar
    23    12    33    1
    24    13    14   ar
    25    13    34    1
    26    14    15   ar
    27    14    35    1
    28    15    36    1
    29    16    17   ar
    30    16    37    1
    31    17    18   ar
    32    17    38    1
    33    19    26   ar
    34    19    20   ar
    35    20    21   ar
    36    20    39    1
    37    21    22   ar
    38    21    40    1
    39    22    23   ar
    40    22    41    1
    41    23    24    1
    42    23    26   ar
    43    24    25    3
    44    26    42    1
@<TRIPOS>SUBSTRUCTURE
     1 ZINC001625935330        1 TEMP              0 ****  ****    0 ROOT


##########                                Name:    ZINC000176150038
##########                DOCK_Rotatable_Bonds:                   4
##########                         Heavy_Atoms:                  23
##########                    Molecular_Weight:             333.712
##########                DOCK_Rotatable_Bonds:                   4
##########                       Formal_Charge:        -2.23517e-07
##########                     HBond_Acceptors:                  10
##########                        HBond_Donors:                   1
##########                         Heavy_Atoms:                  23
##########                          Grid_Score:          -28.772154
##########                     Grid_vdw_energy:          -27.848433
##########                      Grid_es_energy:           -0.923721
##########           Internal_energy_repulsive:           13.354681

@<TRIPOS>MOLECULE
ZINC000176150038
 32 34 1 0 0
SMALL
USER_CHARGES


@<TRIPOS>ATOM
      1 C1        -13.9602   -0.6805   53.2625 C.3     1  ZINC000176150038   -0.0900
      2 C2        -12.8797   -1.5416   52.6606 C.2     1  ZINC000176150038    0.2600
      3 N3        -12.3112   -1.3706   51.4957 N.2     1  ZINC000176150038   -0.3300
      4 N4        -11.4287   -2.2794   51.2849 N.2     1  ZINC000176150038   -0.0300
      5 N5        -11.3717   -3.0863   52.2892 N.2     1  ZINC000176150038   -0.0700
      6 N6        -12.3148   -2.6298   53.2268 N.pl3   1  ZINC000176150038   -0.3300
      7 C7        -12.6112   -3.1896   54.4788 C.ar    1  ZINC000176150038    0.1400
      8 C8        -13.2811   -4.4029   54.5557 C.ar    1  ZINC000176150038   -0.1000
      9 C9        -13.5737   -4.9561   55.7881 C.ar    1  ZINC000176150038   -0.1100
     10 C10       -13.2000   -4.3029   56.9482 C.ar    1  ZINC000176150038    0.1000
     11 F11       -13.4868   -4.8461   58.1516 F       1  ZINC000176150038   -0.1200
     12 C12       -12.5282   -3.0864   56.8765 C.ar    1  ZINC000176150038    0.1300
     13 N13       -12.1498   -2.4247   58.0500 N.am    1  ZINC000176150038   -0.6500
     14 C14       -10.9442   -2.6673   58.6015 C.2     1  ZINC000176150038    0.5700
     15 O15       -10.1859   -3.4605   58.0797 O.2     1  ZINC000176150038   -0.4800
     16 C16       -10.5430   -1.9660   59.8454 C.ar    1  ZINC000176150038    0.1400
     17 N17       -11.2388   -0.9208   60.2877 N.ar    1  ZINC000176150038   -0.4800
     18 C18       -10.8865   -0.2964   61.3906 C.ar    1  ZINC000176150038    0.3000
     19 N19        -9.8407   -0.6713   62.1016 N.ar    1  ZINC000176150038   -0.4800
     20 C20        -9.0973   -1.6994   61.7311 C.ar    1  ZINC000176150038    0.1700
     21 C21        -9.4321   -2.3946   60.5758 C.ar    1  ZINC000176150038   -0.1000
     22 Cl22       -8.4878   -3.7521   60.0474 Cl      1  ZINC000176150038    0.0100
     23 C23       -12.2297   -2.5332   55.6401 C.ar    1  ZINC000176150038   -0.0800
     24 H24       -13.5041    0.1239   53.8397 H       1  ZINC000176150038    0.1100
     25 H25       -14.5713   -0.2551   52.4665 H       1  ZINC000176150038    0.1100
     26 H26       -14.5862   -1.2873   53.9165 H       1  ZINC000176150038    0.0900
     27 H27       -13.5746   -4.9152   53.6514 H       1  ZINC000176150038    0.1500
     28 H28       -14.0953   -5.9001   55.8452 H       1  ZINC000176150038    0.1600
     29 H29       -12.7551   -1.7914   58.4665 H       1  ZINC000176150038    0.4300
     30 H30       -11.4708    0.5486   61.7237 H       1  ZINC000176150038    0.2200
     31 H31        -8.2431   -1.9977   62.3210 H       1  ZINC000176150038    0.1900
     32 H32       -11.7084   -1.5891   55.5815 H       1  ZINC000176150038    0.1700
@<TRIPOS>BOND
     1     1     2    1
     2     1    24    1
     3     1    25    1
     4     1    26    1
     5     2     6    1
     6     2     3    2
     7     3     4    1
     8     4     5    2
     9     5     6    1
    10     6     7    1
    11     7    23   ar
    12     7     8   ar
    13     8     9   ar
    14     8    27    1
    15     9    10   ar
    16     9    28    1
    17    10    11    1
    18    10    12   ar
    19    12    13    1
    20    12    23   ar
    21    13    14   am
    22    13    29    1
    23    14    15    2
    24    14    16    1
    25    16    21   ar
    26    16    17   ar
    27    17    18   ar
    28    18    19   ar
    29    18    30    1
    30    19    20   ar
    31    20    21   ar
    32    20    31    1
    33    21    22    1
    34    23    32    1
@<TRIPOS>SUBSTRUCTURE
     1 ZINC000176150038        1 TEMP              0 ****  ****    0 ROOT


##########                                Name:    ZINC000836820897
##########                DOCK_Rotatable_Bonds:                   5
##########                         Heavy_Atoms:                  22
##########                    Molecular_Weight:             330.355
##########                DOCK_Rotatable_Bonds:                   5
##########                       Formal_Charge:          -0.0200003
##########                     HBond_Acceptors:                   8
##########                        HBond_Donors:                   1
##########                         Heavy_Atoms:                  22
##########                          Grid_Score:          -28.723928
##########                     Grid_vdw_energy:          -29.470369
##########                      Grid_es_energy:            0.746441
##########           Internal_energy_repulsive:            6.560260

@<TRIPOS>MOLECULE
ZINC000836820897
 38 40 1 0 0
SMALL
USER_CHARGES


@<TRIPOS>ATOM
      1 O1        -13.3966   -5.0968   57.4902 O.2     1  ZINC000836820897   -0.5200
      2 C2        -12.4351   -4.4515   57.1201 C.2     1  ZINC000836820897    0.5800
      3 C3        -11.4723   -3.9268   58.1101 C.ar    1  ZINC000836820897   -0.1600
      4 C4        -10.3572   -4.6848   58.4729 C.ar    1  ZINC000836820897   -0.0100
      5 C5         -9.4616   -4.1901   59.3969 C.ar    1  ZINC000836820897   -0.1700
      6 C6         -9.6667   -2.9426   59.9657 C.ar    1  ZINC000836820897    0.2200
      7 F7         -8.7859   -2.4625   60.8707 F       1  ZINC000836820897   -0.1100
      8 C8        -10.7723   -2.1854   59.6086 C.ar    1  ZINC000836820897   -0.7200
      9 S9        -11.0245   -0.6003   60.3357 S.o2    1  ZINC000836820897    2.7000
     10 O10       -10.5389   -0.6882   61.6682 O.2     1  ZINC000836820897   -0.9400
     11 O11       -10.5474    0.3527   59.3959 O.2     1  ZINC000836820897   -0.9400
     12 N12       -12.6602   -0.3676   60.4485 N.am    1  ZINC000836820897   -1.0800
     13 C13       -13.4790   -1.2919   61.2367 C.3     1  ZINC000836820897    0.0700
     14 C14       -14.9195   -0.8759   61.5413 C.3     1  ZINC000836820897   -0.1800
     15 C15       -14.6424   -1.9867   60.5264 C.3     1  ZINC000836820897   -0.1900
     16 C16       -11.6712   -2.6683   58.6823 C.ar    1  ZINC000836820897    0.0600
     17 N17       -12.2445   -4.2194   55.8062 N.am    1  ZINC000836820897   -0.6200
     18 C18       -13.1232   -4.6752   54.7193 C.3     1  ZINC000836820897    0.0900
     19 C19       -12.5238   -4.1537   53.3962 C.3     1  ZINC000836820897   -0.1600
     20 C20       -11.6518   -2.9563   53.8580 C.3     1  ZINC000836820897    0.0800
     21 H21       -12.2567   -2.0586   53.9853 H       1  ZINC000836820897    0.1100
     22 F22       -10.6009   -2.7269   52.9634 F       1  ZINC000836820897   -0.1900
     23 C23       -11.1236   -3.4611   55.2215 C.3     1  ZINC000836820897    0.0800
     24 H24       -10.1968   -5.6569   58.0306 H       1  ZINC000836820897    0.1500
     25 H25        -8.5989   -4.7758   59.6784 H       1  ZINC000836820897    0.1600
     26 H26       -13.0762    0.3809   59.9927 H       1  ZINC000836820897    0.4200
     27 H27       -12.9459   -1.8576   62.0008 H       1  ZINC000836820897    0.1400
     28 H28       -15.3343   -1.1677   62.5061 H       1  ZINC000836820897    0.1100
     29 H29       -15.2579    0.0856   61.1553 H       1  ZINC000836820897    0.1000
     30 H30       -14.7986   -1.7561   59.4725 H       1  ZINC000836820897    0.1000
     31 H31       -14.8749   -3.0094   60.8234 H       1  ZINC000836820897    0.1000
     32 H32       -12.5318   -2.0777   58.4047 H       1  ZINC000836820897    0.1600
     33 H33       -13.1610   -5.7645   54.7052 H       1  ZINC000836820897    0.0800
     34 H34       -14.1253   -4.2693   54.8577 H       1  ZINC000836820897    0.0800
     35 H35       -11.9086   -4.9191   52.9234 H       1  ZINC000836820897    0.0900
     36 H36       -13.3117   -3.8193   52.7212 H       1  ZINC000836820897    0.1000
     37 H37       -10.8566   -2.6191   55.8602 H       1  ZINC000836820897    0.1000
     38 H38       -10.2643   -4.1159   55.0765 H       1  ZINC000836820897    0.0900
@<TRIPOS>BOND
     1     1     2    2
     2     2     3    1
     3     2    17   am
     4     3    16   ar
     5     3     4   ar
     6     4     5   ar
     7     4    24    1
     8     5     6   ar
     9     5    25    1
    10     6     7    1
    11     6     8   ar
    12     8     9    1
    13     8    16   ar
    14     9    10    2
    15     9    11    2
    16     9    12   am
    17    12    13    1
    18    12    26    1
    19    13    15    1
    20    13    14    1
    21    13    27    1
    22    14    15    1
    23    14    28    1
    24    14    29    1
    25    15    30    1
    26    15    31    1
    27    16    32    1
    28    17    23    1
    29    17    18    1
    30    18    19    1
    31    18    33    1
    32    18    34    1
    33    19    20    1
    34    19    35    1
    35    19    36    1
    36    20    21    1
    37    20    22    1
    38    20    23    1
    39    23    37    1
    40    23    38    1
@<TRIPOS>SUBSTRUCTURE
     1 ZINC000836820897        1 TEMP              0 ****  ****    0 ROOT


##########                                Name:    ZINC001060620810
##########                DOCK_Rotatable_Bonds:                   5
##########                         Heavy_Atoms:                  24
##########                    Molecular_Weight:             332.421
##########                DOCK_Rotatable_Bonds:                   5
##########                       Formal_Charge:           0.0299998
##########                     HBond_Acceptors:                   6
##########                        HBond_Donors:                   2
##########                         Heavy_Atoms:                  24
##########                          Grid_Score:          -28.537592
##########                     Grid_vdw_energy:          -28.180872
##########                      Grid_es_energy:           -0.356720
##########           Internal_energy_repulsive:            8.440988

@<TRIPOS>MOLECULE
ZINC001060620810
 49 52 1 0 0
SMALL
USER_CHARGES


@<TRIPOS>ATOM
      1 O1         -9.8858   -0.6368   56.8486 O.2     1  ZINC001060620810   -0.5400
      2 C2        -10.5364   -1.6000   57.1950 C.2     1  ZINC001060620810    0.5500
      3 N3        -11.1625   -2.3574   56.2725 N.am    1  ZINC001060620810   -0.7200
      4 C4        -11.0556   -2.0183   54.8513 C.3     1  ZINC001060620810    0.1400
      5 C5        -11.1137   -3.2986   54.0158 C.3     1  ZINC001060620810   -0.1300
      6 C6        -11.0021   -2.9446   52.5315 C.3     1  ZINC001060620810   -0.1300
      7 C7        -12.1604   -2.0256   52.1380 C.3     1  ZINC001060620810    0.1600
      8 N8        -13.4320   -2.7108   52.3822 N.pl3   1  ZINC001060620810   -0.6900
      9 C9        -14.5615   -2.3517   51.6647 C.ar    1  ZINC001060620810    0.5600
     10 N10       -15.7017   -2.9849   51.8956 N.ar    1  ZINC001060620810   -0.5400
     11 C11       -16.8004   -2.6641   51.2320 C.ar    1  ZINC001060620810    0.1700
     12 C12       -16.7445   -1.6582   50.2775 C.ar    1  ZINC001060620810   -0.0700
     13 F13       -17.8460   -1.3081   49.5779 F       1  ZINC001060620810   -0.1300
     14 C14       -15.5320   -1.0197   50.0581 C.ar    1  ZINC001060620810    0.1800
     15 N15       -14.4732   -1.3874   50.7611 N.ar    1  ZINC001060620810   -0.5500
     16 C16       -12.1023   -0.7452   52.9735 C.3     1  ZINC001060620810   -0.1200
     17 C17       -12.2139   -1.0994   54.4578 C.3     1  ZINC001060620810   -0.1300
     18 C18       -10.6448   -1.9498   58.6568 C.3     1  ZINC001060620810   -0.1500
     19 C19       -12.0525   -2.2127   59.1756 C.3     1  ZINC001060620810   -0.1500
     20 C20       -11.3439   -0.9246   59.5358 C.3     1  ZINC001060620810   -0.1100
     21 H21       -11.7192   -0.0239   59.0503 H       1  ZINC001060620810    0.1100
     22 C22       -10.9252   -0.7330   60.9901 C.3     1  ZINC001060620810   -0.0900
     23 C23        -9.5232   -1.2970   61.2218 C.3     1  ZINC001060620810   -0.1200
     24 C24        -9.4944   -2.7500   60.7340 C.3     1  ZINC001060620810   -0.1200
     25 C25        -9.4744   -2.7507   59.2055 C.3     1  ZINC001060620810   -0.0800
     26 H26       -11.6838   -3.1269   56.5497 H       1  ZINC001060620810    0.4000
     27 H27       -10.1094   -1.5084   54.6696 H       1  ZINC001060620810    0.0900
     28 H28       -10.2886   -3.9533   54.2961 H       1  ZINC001060620810    0.0700
     29 H29       -12.0598   -3.8084   54.1975 H       1  ZINC001060620810    0.0600
     30 H30       -11.0436   -3.8567   51.9362 H       1  ZINC001060620810    0.0700
     31 H31       -10.0560   -2.4347   52.3498 H       1  ZINC001060620810    0.0800
     32 H32       -12.0809   -1.7733   51.0805 H       1  ZINC001060620810    0.1000
     33 H33       -13.4832   -3.4160   53.0462 H       1  ZINC001060620810    0.4100
     34 H34       -17.7279   -3.1815   51.4274 H       1  ZINC001060620810    0.1800
     35 H35       -15.4536   -0.2330   49.3224 H       1  ZINC001060620810    0.1800
     36 H36       -12.9274   -0.0906   52.6931 H       1  ZINC001060620810    0.0800
     37 H37       -11.1561   -0.2355   52.7918 H       1  ZINC001060620810    0.0900
     38 H38       -13.1600   -1.6092   54.6395 H       1  ZINC001060620810    0.0700
     39 H39       -12.1724   -0.1872   55.0530 H       1  ZINC001060620810    0.0800
     40 H40       -12.8735   -2.1452   58.4619 H       1  ZINC001060620810    0.1000
     41 H41       -12.1692   -2.9621   59.9586 H       1  ZINC001060620810    0.1100
     42 H42       -11.6366   -1.2619   61.6242 H       1  ZINC001060620810    0.0700
     43 H43       -10.9345    0.3272   61.2430 H       1  ZINC001060620810    0.0700
     44 H44        -9.2863   -1.2631   62.2852 H       1  ZINC001060620810    0.0700
     45 H45        -8.7952   -0.7089   60.6631 H       1  ZINC001060620810    0.0700
     46 H46       -10.3828   -3.2728   61.0886 H       1  ZINC001060620810    0.0700
     47 H47        -8.5999   -3.2452   61.1120 H       1  ZINC001060620810    0.0700
     48 H48        -9.5406   -3.7774   58.8453 H       1  ZINC001060620810    0.0700
     49 H49        -8.5410   -2.3074   58.8584 H       1  ZINC001060620810    0.0700
@<TRIPOS>BOND
     1     1     2    2
     2     2     3   am
     3     2    18    1
     4     3     4    1
     5     3    26    1
     6     4    17    1
     7     4     5    1
     8     4    27    1
     9     5     6    1
    10     5    28    1
    11     5    29    1
    12     6     7    1
    13     6    30    1
    14     6    31    1
    15     7     8    1
    16     7    16    1
    17     7    32    1
    18     8     9    1
    19     8    33    1
    20     9    15   ar
    21     9    10   ar
    22    10    11   ar
    23    11    12   ar
    24    11    34    1
    25    12    13    1
    26    12    14   ar
    27    14    15   ar
    28    14    35    1
    29    16    17    1
    30    16    36    1
    31    16    37    1
    32    17    38    1
    33    17    39    1
    34    18    20    1
    35    18    25    1
    36    18    19    1
    37    19    20    1
    38    19    40    1
    39    19    41    1
    40    20    21    1
    41    20    22    1
    42    22    23    1
    43    22    42    1
    44    22    43    1
    45    23    24    1
    46    23    44    1
    47    23    45    1
    48    24    25    1
    49    24    46    1
    50    24    47    1
    51    25    48    1
    52    25    49    1
@<TRIPOS>SUBSTRUCTURE
     1 ZINC001060620810        1 TEMP              0 ****  ****    0 ROOT


##########                                Name:    ZINC000375477402
##########                DOCK_Rotatable_Bonds:                   5
##########                         Heavy_Atoms:                  26
##########                    Molecular_Weight:             378.342
##########                DOCK_Rotatable_Bonds:                   5
##########                       Formal_Charge:         -1.2666e-07
##########                     HBond_Acceptors:                   9
##########                        HBond_Donors:                   1
##########                         Heavy_Atoms:                  26
##########                          Grid_Score:          -28.530075
##########                     Grid_vdw_energy:          -29.892595
##########                      Grid_es_energy:            1.362520
##########           Internal_energy_repulsive:            7.415796

@<TRIPOS>MOLECULE
ZINC000375477402
 45 47 1 0 0
SMALL
USER_CHARGES


@<TRIPOS>ATOM
      1 O1         -8.4537    1.0450   55.7439 O.2     1  ZINC000375477402   -0.5600
      2 C2         -9.5235    0.4905   55.5812 C.2     1  ZINC000375477402    0.7200
      3 N3        -10.2059    0.6665   54.4324 N.am    1  ZINC000375477402   -0.7300
      4 C4         -9.6616    1.5309   53.3821 C.3     1  ZINC000375477402    0.1800
      5 H5         -9.1458    2.3760   53.8381 H       1  ZINC000375477402    0.1500
      6 C6         -8.6908    0.7456   52.5384 C.ar    1  ZINC000375477402   -0.1300
      7 C7         -8.8659   -0.6149   52.3688 C.ar    1  ZINC000375477402   -0.0800
      8 C8         -7.9761   -1.3367   51.5951 C.ar    1  ZINC000375477402   -0.0900
      9 C9         -6.9095   -0.6994   50.9895 C.ar    1  ZINC000375477402   -0.1100
     10 C10        -6.7314    0.6629   51.1574 C.ar    1  ZINC000375477402    0.0800
     11 F11        -5.6892    1.2866   50.5658 F       1  ZINC000375477402   -0.1200
     12 C12        -7.6270    1.3878   51.9287 C.ar    1  ZINC000375477402    0.1000
     13 F13        -7.4553    2.7176   52.0940 F       1  ZINC000375477402   -0.1100
     14 C14       -10.8028    2.0444   52.5020 C.3     1  ZINC000375477402    0.4400
     15 F15       -11.7041    2.7734   53.2852 F       1  ZINC000375477402   -0.1600
     16 F16       -10.2831    2.8697   51.4990 F       1  ZINC000375477402   -0.1700
     17 F17       -11.4649    0.9597   51.9168 F       1  ZINC000375477402   -0.1800
     18 N18       -10.0242   -0.3046   56.5473 N.am    1  ZINC000375477402   -0.6300
     19 C19       -11.3018   -1.0386   56.4807 C.3     1  ZINC000375477402    0.1000
     20 C20       -11.1345   -2.2207   57.4697 C.3     1  ZINC000375477402   -0.1200
     21 C21       -10.3000   -1.5671   58.5937 C.3     1  ZINC000375477402   -0.1100
     22 C22        -9.3838   -0.5899   57.8416 C.3     1  ZINC000375477402    0.1400
     23 C23       -11.2119   -0.8237   59.5617 C.3     1  ZINC000375477402   -0.1100
     24 C24       -10.3674   -0.2402   60.7006 C.3     1  ZINC000375477402   -0.1600
     25 C25        -9.5741   -1.3693   61.3638 C.3     1  ZINC000375477402    0.0600
     26 O26        -8.7487   -2.0094   60.3884 O.3     1  ZINC000375477402   -0.3800
     27 C27        -9.4772   -2.6220   59.3208 C.3     1  ZINC000375477402    0.0800
     28 H28       -11.0575    0.2209   54.3010 H       1  ZINC000375477402    0.4000
     29 H29        -9.6985   -1.1146   52.8414 H       1  ZINC000375477402    0.1400
     30 H30        -8.1143   -2.3998   51.4639 H       1  ZINC000375477402    0.1500
     31 H31        -6.2150   -1.2644   50.3856 H       1  ZINC000375477402    0.1500
     32 H32       -12.1248   -0.3961   56.7936 H       1  ZINC000375477402    0.0700
     33 H33       -11.4730   -1.4107   55.4707 H       1  ZINC000375477402    0.0700
     34 H34       -12.1013   -2.5559   57.8452 H       1  ZINC000375477402    0.0900
     35 H35       -10.5901   -3.0436   57.0068 H       1  ZINC000375477402    0.0800
     36 H36        -8.4050   -1.0437   57.6860 H       1  ZINC000375477402    0.0800
     37 H37        -9.2809    0.3345   58.4100 H       1  ZINC000375477402    0.0700
     38 H38       -11.7212   -0.0164   59.0353 H       1  ZINC000375477402    0.0700
     39 H39       -11.9487   -1.5145   59.9715 H       1  ZINC000375477402    0.0700
     40 H40        -9.6781    0.5028   60.2996 H       1  ZINC000375477402    0.0700
     41 H41       -11.0214    0.2271   61.4368 H       1  ZINC000375477402    0.0800
     42 H42        -8.9483   -0.9572   62.1553 H       1  ZINC000375477402    0.1000
     43 H43       -10.2649   -2.0974   61.7891 H       1  ZINC000375477402    0.0500
     44 H44       -10.1418   -3.3851   59.7258 H       1  ZINC000375477402    0.0600
     45 H45        -8.7788   -3.0829   58.6222 H       1  ZINC000375477402    0.1000
@<TRIPOS>BOND
     1     1     2    2
     2     2     3   am
     3     2    18   am
     4     3     4    1
     5     3    28    1
     6     4     5    1
     7     4     6    1
     8     4    14    1
     9     6    12   ar
    10     6     7   ar
    11     7     8   ar
    12     7    29    1
    13     8     9   ar
    14     8    30    1
    15     9    10   ar
    16     9    31    1
    17    10    11    1
    18    10    12   ar
    19    12    13    1
    20    14    15    1
    21    14    16    1
    22    14    17    1
    23    18    22    1
    24    18    19    1
    25    19    20    1
    26    19    32    1
    27    19    33    1
    28    20    21    1
    29    20    34    1
    30    20    35    1
    31    21    27    1
    32    21    22    1
    33    21    23    1
    34    22    36    1
    35    22    37    1
    36    23    24    1
    37    23    38    1
    38    23    39    1
    39    24    25    1
    40    24    40    1
    41    24    41    1
    42    25    26    1
    43    25    42    1
    44    25    43    1
    45    26    27    1
    46    27    44    1
    47    27    45    1
@<TRIPOS>SUBSTRUCTURE
     1 ZINC000375477402        1 TEMP              0 ****  ****    0 ROOT


##########                                Name:    ZINC001456096501
##########                DOCK_Rotatable_Bonds:                   7
##########                         Heavy_Atoms:                  24
##########                    Molecular_Weight:             333.431
##########                DOCK_Rotatable_Bonds:                   7
##########                       Formal_Charge:          -0.0200003
##########                     HBond_Acceptors:                   6
##########                        HBond_Donors:                   0
##########                         Heavy_Atoms:                  24
##########                          Grid_Score:          -28.493605
##########                     Grid_vdw_energy:          -27.437817
##########                      Grid_es_energy:           -1.055788
##########           Internal_energy_repulsive:          147.292908

@<TRIPOS>MOLECULE
ZINC001456096501
 51 52 1 0 0
SMALL
USER_CHARGES


@<TRIPOS>ATOM
      1 C1         -8.9804   -3.2950   59.7420 C.3     1  ZINC001456096501    0.0400
      2 O2         -9.6580   -3.0167   58.5151 O.3     1  ZINC001456096501   -0.2900
      3 C3        -10.0034   -1.7281   58.2821 C.ar    1  ZINC001456096501    0.3700
      4 N4         -9.3617   -0.7532   58.9031 N.ar    1  ZINC001456096501   -0.5400
      5 C5         -9.6651    0.5152   58.7054 C.ar    1  ZINC001456096501    0.1600
      6 C6        -10.6744    0.8828   57.8342 C.ar    1  ZINC001456096501   -0.2200
      7 C7        -11.3793   -0.0968   57.1572 C.ar    1  ZINC001456096501   -0.0200
      8 C8        -11.0364   -1.4354   57.3786 C.ar    1  ZINC001456096501   -0.2000
      9 C9        -11.7550   -2.5198   56.6827 C.2     1  ZINC001456096501    0.5900
     10 O10       -12.3241   -3.3816   57.3243 O.2     1  ZINC001456096501   -0.5100
     11 N11       -11.7805   -2.5551   55.3356 N.am    1  ZINC001456096501   -0.6200
     12 C12       -12.4555   -3.5735   54.5178 C.3     1  ZINC001456096501    0.1000
     13 C13       -12.1931   -3.2207   53.0385 C.3     1  ZINC001456096501   -0.1200
     14 C14       -10.9137   -2.3462   53.1114 C.3     1  ZINC001456096501   -0.1200
     15 H15       -10.0189   -2.9664   53.1647 H       1  ZINC001456096501    0.0900
     16 C16       -10.8397   -1.3827   51.9251 C.3     1  ZINC001456096501    0.1200
     17 N17        -9.8242   -0.3602   52.1891 N.am    1  ZINC001456096501   -0.6200
     18 C18        -8.4035   -0.7171   52.1710 C.3     1  ZINC001456096501    0.0600
     19 C19       -10.1970    0.9087   52.4485 C.2     1  ZINC001456096501    0.5200
     20 O20       -11.3731    1.2042   52.4636 O.2     1  ZINC001456096501   -0.5300
     21 C21        -9.1523    1.9603   52.7201 C.3     1  ZINC001456096501   -0.0800
     22 C22        -9.8060    3.3437   52.7082 C.3     1  ZINC001456096501   -0.1300
     23 C23        -8.5181    1.7077   54.0893 C.3     1  ZINC001456096501   -0.1500
     24 C24        -8.0721    1.8975   51.6383 C.3     1  ZINC001456096501   -0.1700
     25 C25       -11.1416   -1.5753   54.4382 C.3     1  ZINC001456096501    0.1200
     26 H26        -8.0484   -2.7308   59.7785 H       1  ZINC001456096501    0.0600
     27 H27        -9.6135   -3.0053   60.5807 H       1  ZINC001456096501    0.0600
     28 H28        -8.7622   -4.3612   59.8028 H       1  ZINC001456096501    0.1000
     29 H29        -9.1158    1.2804   59.2337 H       1  ZINC001456096501    0.1700
     30 H30       -10.9108    1.9259   57.6838 H       1  ZINC001456096501    0.1500
     31 H31       -12.1720    0.1653   56.4721 H       1  ZINC001456096501    0.1500
     32 H32       -12.0476   -4.5591   54.7419 H       1  ZINC001456096501    0.0700
     33 H33       -13.5269   -3.5592   54.7178 H       1  ZINC001456096501    0.0700
     34 H34       -12.0112   -4.1223   52.4535 H       1  ZINC001456096501    0.0900
     35 H35       -13.0258   -2.6524   52.6240 H       1  ZINC001456096501    0.0800
     36 H36       -10.5732   -1.9354   51.0243 H       1  ZINC001456096501    0.0800
     37 H37       -11.8090   -0.9043   51.7847 H       1  ZINC001456096501    0.0900
     38 H38        -7.9967   -0.5388   51.1756 H       1  ZINC001456096501    0.0600
     39 H39        -7.8663   -0.1074   52.8976 H       1  ZINC001456096501    0.0900
     40 H40        -8.2902   -1.7708   52.4263 H       1  ZINC001456096501    0.0700
     41 H41       -10.5756    3.3884   53.4788 H       1  ZINC001456096501    0.0600
     42 H42        -9.0505    4.1042   52.9046 H       1  ZINC001456096501    0.0600
     43 H43       -10.2579    3.5235   51.7327 H       1  ZINC001456096501    0.0600
     44 H44        -8.1688    0.6766   54.1433 H       1  ZINC001456096501    0.0700
     45 H45        -7.6755    2.3847   54.2300 H       1  ZINC001456096501    0.0700
     46 H46        -9.2583    1.8818   54.8703 H       1  ZINC001456096501    0.0600
     47 H47        -8.5239    2.0775   50.6628 H       1  ZINC001456096501    0.0600
     48 H48        -7.3165    2.6582   51.8347 H       1  ZINC001456096501    0.0700
     49 H49        -7.6064    0.9120   51.6468 H       1  ZINC001456096501    0.0800
     50 H50       -11.7974   -0.7206   54.2726 H       1  ZINC001456096501    0.0800
     51 H51       -10.1892   -1.2485   54.8555 H       1  ZINC001456096501    0.0700
@<TRIPOS>BOND
     1     1     2    1
     2     1    26    1
     3     1    27    1
     4     1    28    1
     5     2     3    1
     6     3     8   ar
     7     3     4   ar
     8     4     5   ar
     9     5     6   ar
    10     5    29    1
    11     6     7   ar
    12     6    30    1
    13     7     8   ar
    14     7    31    1
    15     8     9    1
    16     9    10    2
    17     9    11   am
    18    11    25    1
    19    11    12    1
    20    12    13    1
    21    12    32    1
    22    12    33    1
    23    13    14    1
    24    13    34    1
    25    13    35    1
    26    14    15    1
    27    14    16    1
    28    14    25    1
    29    16    17    1
    30    16    36    1
    31    16    37    1
    32    17    18    1
    33    17    19   am
    34    18    38    1
    35    18    39    1
    36    18    40    1
    37    19    20    2
    38    19    21    1
    39    21    22    1
    40    21    23    1
    41    21    24    1
    42    22    41    1
    43    22    42    1
    44    22    43    1
    45    23    44    1
    46    23    45    1
    47    23    46    1
    48    24    47    1
    49    24    48    1
    50    24    49    1
    51    25    50    1
    52    25    51    1
@<TRIPOS>SUBSTRUCTURE
     1 ZINC001456096501        1 TEMP              0 ****  ****    0 ROOT


##########                                Name:    ZINC000956479608
##########                DOCK_Rotatable_Bonds:                   5
##########                         Heavy_Atoms:                  25
##########                    Molecular_Weight:             345.442
##########                DOCK_Rotatable_Bonds:                   5
##########                       Formal_Charge:          -0.0100001
##########                     HBond_Acceptors:                   6
##########                        HBond_Donors:                   1
##########                         Heavy_Atoms:                  25
##########                          Grid_Score:          -28.467037
##########                     Grid_vdw_energy:          -28.107765
##########                      Grid_es_energy:           -0.359272
##########           Internal_energy_repulsive:           32.449837

@<TRIPOS>MOLECULE
ZINC000956479608
 52 55 1 0 0
SMALL
USER_CHARGES


@<TRIPOS>ATOM
      1 C1         -9.9255   -3.1200   58.9228 C.3     1  ZINC000956479608   -0.0900
      2 C2        -10.2950   -2.2434   60.0916 C.2     1  ZINC000956479608   -0.1100
      3 C3        -11.5331   -1.7736   60.4359 C.2     1  ZINC000956479608   -0.1000
      4 C4        -12.8040   -2.0237   59.7301 C.2     1  ZINC000956479608    0.6100
      5 O5        -13.7513   -1.2812   59.9023 O.2     1  ZINC000956479608   -0.5000
      6 N6        -12.9151   -3.0752   58.8943 N.am    1  ZINC000956479608   -0.7100
      7 C7        -14.1778   -3.3245   58.1947 C.3     1  ZINC000956479608    0.1800
      8 C8        -15.2986   -3.5163   59.2185 C.3     1  ZINC000956479608   -0.1700
      9 C9        -14.5074   -2.1303   57.2962 C.3     1  ZINC000956479608   -0.1500
     10 C10       -13.3674   -1.9199   56.2948 C.3     1  ZINC000956479608    0.1100
     11 N11       -13.1380   -3.1763   55.5686 N.am    1  ZINC000956479608   -0.6100
     12 C12       -13.1442   -3.2015   54.2210 C.2     1  ZINC000956479608    0.5500
     13 O13       -12.9550   -4.2454   53.6332 O.2     1  ZINC000956479608   -0.5400
     14 C14       -13.3862   -1.9328   53.4447 C.3     1  ZINC000956479608   -0.1900
     15 H15       -14.3814   -1.5005   53.5482 H       1  ZINC000956479608    0.1200
     16 C16       -12.2150   -0.9730   53.2814 C.3     1  ZINC000956479608   -0.1100
     17 H17       -11.2743   -1.2882   53.7328 H       1  ZINC000956479608    0.1000
     18 C18       -12.4579    0.5281   53.3051 C.3     1  ZINC000956479608   -0.0900
     19 C19       -13.5972    0.9014   52.3567 C.3     1  ZINC000956479608   -0.1200
     20 C20       -13.2700    0.3568   50.9615 C.3     1  ZINC000956479608   -0.1200
     21 C21       -13.4845   -1.1568   50.9667 C.3     1  ZINC000956479608   -0.0900
     22 C22       -12.6866   -1.7879   52.0844 C.3     1  ZINC000956479608   -0.1100
     23 H23       -12.0329   -2.6077   51.7867 H       1  ZINC000956479608    0.1100
     24 C24       -12.9013   -4.4046   56.3392 C.3     1  ZINC000956479608    0.1000
     25 C25       -14.0465   -4.5872   57.3401 C.3     1  ZINC000956479608   -0.1400
     26 O26       -11.3569   -1.0373   61.5493 O.3     1  ZINC000956479608    0.1200
     27 N27       -10.1970   -1.0198   61.8893 N.2     1  ZINC000956479608   -0.3400
     28 C28        -9.4447   -1.7199   61.0909 C.2     1  ZINC000956479608   -0.0100
     29 H29        -9.9980   -4.1671   59.2168 H       1  ZINC000956479608    0.0800
     30 H30       -10.6071   -2.9273   58.0943 H       1  ZINC000956479608    0.0900
     31 H31        -8.9043   -2.8998   58.6119 H       1  ZINC000956479608    0.0800
     32 H32       -12.1590   -3.6668   58.7560 H       1  ZINC000956479608    0.4100
     33 H33       -15.3919   -2.6172   59.8277 H       1  ZINC000956479608    0.0800
     34 H34       -16.2382   -3.7018   58.6982 H       1  ZINC000956479608    0.0700
     35 H35       -15.0639   -4.3664   59.8592 H       1  ZINC000956479608    0.0600
     36 H36       -15.4342   -2.3257   56.7567 H       1  ZINC000956479608    0.0800
     37 H37       -14.6239   -1.2358   57.9081 H       1  ZINC000956479608    0.1000
     38 H38       -13.6406   -1.1349   55.5897 H       1  ZINC000956479608    0.0900
     39 H39       -12.4604   -1.6353   56.8282 H       1  ZINC000956479608    0.0600
     40 H40       -12.7184    0.8344   54.3182 H       1  ZINC000956479608    0.0700
     41 H41       -11.5490    1.0444   52.9963 H       1  ZINC000956479608    0.0700
     42 H42       -14.5286    0.4609   52.7122 H       1  ZINC000956479608    0.0600
     43 H43       -13.6959    1.9860   52.3123 H       1  ZINC000956479608    0.0700
     44 H44       -13.9288    0.8173   50.2252 H       1  ZINC000956479608    0.0700
     45 H45       -12.2313    0.5785   50.7165 H       1  ZINC000956479608    0.0700
     46 H46       -14.5426   -1.3712   51.1167 H       1  ZINC000956479608    0.0700
     47 H47       -13.1664   -1.5700   50.0096 H       1  ZINC000956479608    0.0700
     48 H48       -12.8670   -5.2591   55.6633 H       1  ZINC000956479608    0.0900
     49 H49       -11.9562   -4.3227   56.8762 H       1  ZINC000956479608    0.0700
     50 H50       -13.8349   -5.4414   57.9832 H       1  ZINC000956479608    0.0900
     51 H51       -14.9776   -4.7596   56.8001 H       1  ZINC000956479608    0.0900
     52 H52        -8.3777   -1.8655   61.1719 H       1  ZINC000956479608    0.2000
@<TRIPOS>BOND
     1     1     2    1
     2     1    29    1
     3     1    30    1
     4     1    31    1
     5     2    28    1
     6     2     3    2
     7     3     4    1
     8     3    26    1
     9     4     5    2
    10     4     6   am
    11     6     7    1
    12     6    32    1
    13     7    25    1
    14     7     8    1
    15     7     9    1
    16     8    33    1
    17     8    34    1
    18     8    35    1
    19     9    10    1
    20     9    36    1
    21     9    37    1
    22    10    11    1
    23    10    38    1
    24    10    39    1
    25    11    12   am
    26    11    24    1
    27    12    13    2
    28    12    14    1
    29    14    15    1
    30    14    22    1
    31    14    16    1
    32    16    17    1
    33    16    22    1
    34    16    18    1
    35    18    19    1
    36    18    40    1
    37    18    41    1
    38    19    20    1
    39    19    42    1
    40    19    43    1
    41    20    21    1
    42    20    44    1
    43    20    45    1
    44    21    22    1
    45    21    46    1
    46    21    47    1
    47    22    23    1
    48    24    25    1
    49    24    48    1
    50    24    49    1
    51    25    50    1
    52    25    51    1
    53    26    27    1
    54    27    28    2
    55    28    52    1
@<TRIPOS>SUBSTRUCTURE
     1 ZINC000956479608        1 TEMP              0 ****  ****    0 ROOT


##########                                Name:    ZINC000616491533
##########                DOCK_Rotatable_Bonds:                   4
##########                         Heavy_Atoms:                  27
##########                    Molecular_Weight:             375.418
##########                DOCK_Rotatable_Bonds:                   4
##########                       Formal_Charge:           0.0299996
##########                     HBond_Acceptors:                   7
##########                        HBond_Donors:                   0
##########                         Heavy_Atoms:                  27
##########                          Grid_Score:          -28.425322
##########                     Grid_vdw_energy:          -27.864155
##########                      Grid_es_energy:           -0.561166
##########           Internal_energy_repulsive:           10.113247

@<TRIPOS>MOLECULE
ZINC000616491533
 50 53 1 0 0
SMALL
USER_CHARGES


@<TRIPOS>ATOM
      1 C1        -13.1918    0.1614   59.4515 C.3     1  ZINC000616491533   -0.1700
      2 C2        -11.8298    0.3747   60.1150 C.3     1  ZINC000616491533    0.1400
      3 H3        -11.8626    1.2581   60.7528 H       1  ZINC000616491533    0.0800
      4 C4        -11.4549   -0.8660   60.9554 C.3     1  ZINC000616491533   -0.1200
      5 C5        -10.5200   -1.6506   60.0115 C.3     1  ZINC000616491533   -0.0700
      6 C6         -9.7818   -0.5263   59.2602 C.3     1  ZINC000616491533    0.0900
      7 N7        -10.7923    0.5394   59.0856 N.am    1  ZINC000616491533   -0.6100
      8 C8        -10.7666    1.4981   58.1387 C.2     1  ZINC000616491533    0.6100
      9 O9        -11.6564    2.3255   58.0869 O.2     1  ZINC000616491533   -0.5200
     10 C10        -9.6600    1.5440   57.1659 C.2     1  ZINC000616491533   -0.2400
     11 C11        -9.7492    1.2945   55.8110 C.2     1  ZINC000616491533    0.0700
     12 C12       -10.9972    0.9243   55.0520 C.3     1  ZINC000616491533    0.3400
     13 F13       -11.5393   -0.2482   55.5891 F       1  ZINC000616491533   -0.1900
     14 F14       -11.9313    1.9604   55.1567 F       1  ZINC000616491533   -0.1600
     15 N15        -8.5164    1.4434   55.2930 N.pl3   1  ZINC000616491533   -0.2900
     16 C16        -8.1687    1.2794   53.9452 C.ar    1  ZINC000616491533    0.1300
     17 C17        -8.4707    0.0941   53.2881 C.ar    1  ZINC000616491533   -0.1000
     18 C18        -8.1269   -0.0645   51.9599 C.ar    1  ZINC000616491533   -0.1000
     19 C19        -7.4820    0.9555   51.2846 C.ar    1  ZINC000616491533   -0.1000
     20 C20        -7.1798    2.1371   51.9362 C.ar    1  ZINC000616491533   -0.1000
     21 C21        -7.5267    2.3041   53.2627 C.ar    1  ZINC000616491533   -0.0900
     22 N22        -7.6400    1.7897   56.3275 N.2     1  ZINC000616491533   -0.2600
     23 C23        -8.3104    1.8574   57.4448 C.2     1  ZINC000616491533    0.0700
     24 C24        -9.5404   -2.4991   60.8092 C.3     1  ZINC000616491533   -0.1400
     25 C25        -8.6597   -3.2979   59.8420 C.3     1  ZINC000616491533    0.0600
     26 O26        -9.4918   -4.0760   58.9791 O.3     1  ZINC000616491533   -0.3800
     27 C27       -10.3683   -3.3043   58.1553 C.3     1  ZINC000616491533    0.0600
     28 C28       -11.3270   -2.5054   59.0452 C.3     1  ZINC000616491533   -0.1500
     29 H29       -13.1481   -0.7158   58.8061 H       1  ZINC000616491533    0.0600
     30 H30       -13.9504    0.0101   60.2195 H       1  ZINC000616491533    0.0600
     31 H31       -13.4473    1.0381   58.8564 H       1  ZINC000616491533    0.0800
     32 H32       -10.9285   -0.5723   61.8635 H       1  ZINC000616491533    0.0800
     33 H33       -12.3420   -1.4524   61.1949 H       1  ZINC000616491533    0.0900
     34 H34        -8.9442   -0.1596   59.8534 H       1  ZINC000616491533    0.0800
     35 H35        -9.4341   -0.8824   58.2903 H       1  ZINC000616491533    0.0800
     36 H36       -10.7499    0.7627   54.0027 H       1  ZINC000616491533    0.1400
     37 H37        -8.9737   -0.7031   53.8152 H       1  ZINC000616491533    0.1300
     38 H38        -8.3616   -0.9862   51.4483 H       1  ZINC000616491533    0.1400
     39 H39        -7.2135    0.8288   50.2462 H       1  ZINC000616491533    0.1300
     40 H40        -6.6762    2.9319   51.4062 H       1  ZINC000616491533    0.1400
     41 H41        -7.2904    3.2272   53.7712 H       1  ZINC000616491533    0.1300
     42 H42        -7.9039    2.1040   58.4145 H       1  ZINC000616491533    0.2100
     43 H43        -8.9134   -1.8517   61.4223 H       1  ZINC000616491533    0.0800
     44 H44       -10.0924   -3.1861   61.4508 H       1  ZINC000616491533    0.0800
     45 H45        -8.0583   -2.6114   59.2459 H       1  ZINC000616491533    0.0500
     46 H46        -8.0039   -3.9591   60.4086 H       1  ZINC000616491533    0.1000
     47 H47        -9.7825   -2.6180   57.5437 H       1  ZINC000616491533    0.0500
     48 H48       -10.9407   -3.9700   57.5094 H       1  ZINC000616491533    0.1000
     49 H49       -11.9592   -3.1925   59.6077 H       1  ZINC000616491533    0.0800
     50 H50       -11.9502   -1.8625   58.4237 H       1  ZINC000616491533    0.0800
@<TRIPOS>BOND
     1     1     2    1
     2     1    29    1
     3     1    30    1
     4     1    31    1
     5     2     3    1
     6     2     7    1
     7     2     4    1
     8     4     5    1
     9     4    32    1
    10     4    33    1
    11     5    28    1
    12     5     6    1
    13     5    24    1
    14     6     7    1
    15     6    34    1
    16     6    35    1
    17     7     8   am
    18     8     9    2
    19     8    10    1
    20    10    23    1
    21    10    11    2
    22    11    12    1
    23    11    15    1
    24    12    13    1
    25    12    14    1
    26    12    36    1
    27    15    16    1
    28    15    22    1
    29    16    21   ar
    30    16    17   ar
    31    17    18   ar
    32    17    37    1
    33    18    19   ar
    34    18    38    1
    35    19    20   ar
    36    19    39    1
    37    20    21   ar
    38    20    40    1
    39    21    41    1
    40    22    23    2
    41    23    42    1
    42    24    25    1
    43    24    43    1
    44    24    44    1
    45    25    26    1
    46    25    45    1
    47    25    46    1
    48    26    27    1
    49    27    28    1
    50    27    47    1
    51    27    48    1
    52    28    49    1
    53    28    50    1
@<TRIPOS>SUBSTRUCTURE
     1 ZINC000616491533        1 TEMP              0 ****  ****    0 ROOT


##########                                Name:    ZINC000928803822
##########                DOCK_Rotatable_Bonds:                   7
##########                         Heavy_Atoms:                  21
##########                    Molecular_Weight:             364.165
##########                DOCK_Rotatable_Bonds:                   7
##########                       Formal_Charge:         -0.00999978
##########                     HBond_Acceptors:                   7
##########                        HBond_Donors:                   1
##########                         Heavy_Atoms:                  21
##########                          Grid_Score:          -28.295584
##########                     Grid_vdw_energy:          -27.146282
##########                      Grid_es_energy:           -1.149302
##########           Internal_energy_repulsive:            8.368600

@<TRIPOS>MOLECULE
ZINC000928803822
 34 34 1 0 0
SMALL
USER_CHARGES


@<TRIPOS>ATOM
      1 C1        -11.3731   -3.8266   52.9041 C.3     1  ZINC000928803822    0.0900
      2 N2        -12.0322   -2.8666   53.7932 N.pl3   1  ZINC000928803822   -0.6300
      3 C3        -13.4524   -3.0234   54.1165 C.3     1  ZINC000928803822    0.0900
      4 C4        -11.3063   -1.8019   54.3327 C.ar    1  ZINC000928803822    0.2200
      5 C5        -11.1039   -0.6489   53.5838 C.ar    1  ZINC000928803822   -0.1500
      6 C6        -10.3858    0.4081   54.1136 C.ar    1  ZINC000928803822   -0.0500
      7 Br7       -10.1163    1.9731   53.0869 Br      1  ZINC000928803822   -0.0400
      8 C8         -9.8656    0.3241   55.3898 C.ar    1  ZINC000928803822   -0.1200
      9 C9        -10.0637   -0.8300   56.1497 C.ar    1  ZINC000928803822   -0.0800
     10 C10        -9.5078   -0.9226   57.5167 C.2     1  ZINC000928803822    0.5700
     11 O11        -8.7114   -0.0911   57.9066 O.2     1  ZINC000928803822   -0.5100
     12 N12        -9.8840   -1.9289   58.3305 N.am    1  ZINC000928803822   -0.7200
     13 C13        -9.3318   -2.0217   59.6843 C.3     1  ZINC000928803822    0.1100
     14 H14        -8.4145   -1.4359   59.7434 H       1  ZINC000928803822    0.1400
     15 C15        -9.0248   -3.4845   60.0107 C.3     1  ZINC000928803822   -0.0300
     16 C16        -9.7353   -4.3584   59.0629 C.1     1  ZINC000928803822    0.2000
     17 N17       -10.2836   -5.0328   58.3315 N.1     1  ZINC000928803822   -0.4000
     18 C18       -10.3497   -1.4778   60.6887 C.3     1  ZINC000928803822    0.4400
     19 F19       -11.4287   -2.3631   60.7849 F       1  ZINC000928803822   -0.1800
     20 F20        -9.7427   -1.3444   61.9421 F       1  ZINC000928803822   -0.1700
     21 F21       -10.8087   -0.2286   60.2574 F       1  ZINC000928803822   -0.1600
     22 C22       -10.7926   -1.8933   55.6175 C.ar    1  ZINC000928803822   -0.1200
     23 H23       -11.4582   -3.4843   51.8727 H       1  ZINC000928803822    0.0600
     24 H24       -10.3202   -3.9083   53.1741 H       1  ZINC000928803822    0.0700
     25 H25       -11.8505   -4.8014   53.0040 H       1  ZINC000928803822    0.0700
     26 H26       -13.5561   -3.6426   55.0074 H       1  ZINC000928803822    0.0500
     27 H27       -13.8932   -2.0438   54.3014 H       1  ZINC000928803822    0.0700
     28 H28       -13.9648   -3.5004   53.2810 H       1  ZINC000928803822    0.0700
     29 H29       -11.5082   -0.5779   52.5848 H       1  ZINC000928803822    0.1400
     30 H30        -9.3052    1.1512   55.8000 H       1  ZINC000928803822    0.1300
     31 H31       -10.5204   -2.5918   58.0198 H       1  ZINC000928803822    0.4100
     32 H32        -7.9515   -3.6574   59.9298 H       1  ZINC000928803822    0.1400
     33 H33        -9.3529   -3.7069   61.0261 H       1  ZINC000928803822    0.1300
     34 H34       -10.9489   -2.7886   56.2009 H       1  ZINC000928803822    0.1500
@<TRIPOS>BOND
     1     1     2    1
     2     1    23    1
     3     1    24    1
     4     1    25    1
     5     2     3    1
     6     2     4    1
     7     3    26    1
     8     3    27    1
     9     3    28    1
    10     4    22   ar
    11     4     5   ar
    12     5     6   ar
    13     5    29    1
    14     6     7    1
    15     6     8   ar
    16     8     9   ar
    17     8    30    1
    18     9    10    1
    19     9    22   ar
    20    10    11    2
    21    10    12   am
    22    12    13    1
    23    12    31    1
    24    13    14    1
    25    13    15    1
    26    13    18    1
    27    15    16    1
    28    15    32    1
    29    15    33    1
    30    16    17    3
    31    18    19    1
    32    18    20    1
    33    18    21    1
    34    22    34    1
@<TRIPOS>SUBSTRUCTURE
     1 ZINC000928803822        1 TEMP              0 ****  ****    0 ROOT


##########                                Name:    ZINC000541315701
##########                DOCK_Rotatable_Bonds:                   4
##########                         Heavy_Atoms:                  25
##########                    Molecular_Weight:             422.709
##########                DOCK_Rotatable_Bonds:                   4
##########                       Formal_Charge:           0.0300003
##########                     HBond_Acceptors:                   6
##########                        HBond_Donors:                   0
##########                         Heavy_Atoms:                  25
##########                          Grid_Score:          -28.095825
##########                     Grid_vdw_energy:          -28.224169
##########                      Grid_es_energy:            0.128344
##########           Internal_energy_repulsive:           16.796516

@<TRIPOS>MOLECULE
ZINC000541315701
 42 44 1 0 0
SMALL
USER_CHARGES


@<TRIPOS>ATOM
      1 C1        -10.0907   -0.3360   58.3163 C.3     1  ZINC000541315701    0.0800
      2 N2        -11.0857   -1.0656   59.1061 N.am    1  ZINC000541315701   -0.5700
      3 C3        -11.6362   -2.1952   58.6190 C.2     1  ZINC000541315701    0.5400
      4 O4        -12.4599   -2.7992   59.2728 O.2     1  ZINC000541315701   -0.5000
      5 C5        -11.2281   -2.7079   57.2619 C.3     1  ZINC000541315701   -0.1100
      6 H6        -10.2301   -2.3575   56.9988 H       1  ZINC000541315701    0.1300
      7 C7        -11.3052   -4.2512   57.2072 C.3     1  ZINC000541315701   -0.1500
      8 C8        -12.6880   -4.5346   56.6629 C.2     1  ZINC000541315701    0.5200
      9 O9        -13.2525   -5.6062   56.7246 O.2     1  ZINC000541315701   -0.5200
     10 N10       -13.1999   -3.4258   56.1015 N.am    1  ZINC000541315701   -0.6100
     11 C11       -14.5269   -3.3484   55.4855 C.3     1  ZINC000541315701    0.0900
     12 C12       -12.2584   -2.3018   56.1848 C.3     1  ZINC000541315701    0.1900
     13 H13       -12.7808   -1.3936   56.4854 H       1  ZINC000541315701    0.1100
     14 C14       -11.5750   -2.0945   54.8578 C.ar    1  ZINC000541315701   -0.0900
     15 C15       -11.1908   -3.1852   54.1006 C.ar    1  ZINC000541315701   -0.1000
     16 C16       -10.5641   -2.9958   52.8828 C.ar    1  ZINC000541315701   -0.1000
     17 C17       -10.3212   -1.7158   52.4221 C.ar    1  ZINC000541315701   -0.1000
     18 C18       -10.7057   -0.6235   53.1796 C.ar    1  ZINC000541315701   -0.0300
     19 Cl19      -10.4015    0.9848   52.6012 Cl      1  ZINC000541315701   -0.0600
     20 C20       -11.3377   -0.8136   54.3954 C.ar    1  ZINC000541315701   -0.0900
     21 C21       -11.4632   -0.5912   60.3618 C.ar    1  ZINC000541315701    0.3800
     22 N22       -12.5798    0.1073   60.4902 N.ar    1  ZINC000541315701   -0.4700
     23 C23       -12.9737    0.5741   61.6598 C.ar    1  ZINC000541315701    0.1300
     24 C24       -12.2285    0.3484   62.8000 C.ar    1  ZINC000541315701   -0.1600
     25 C25       -11.0501   -0.3800   62.7089 C.ar    1  ZINC000541315701   -0.0400
     26 C26       -10.6657   -0.8613   61.4692 C.ar    1  ZINC000541315701   -0.1300
     27 Br27       -9.0713   -1.8606   61.2813 Br      1  ZINC000541315701   -0.0200
     28 H28       -10.3305   -0.4263   57.2568 H       1  ZINC000541315701    0.0900
     29 H29       -10.0997    0.7158   58.6024 H       1  ZINC000541315701    0.0800
     30 H30        -9.1015   -0.7545   58.5019 H       1  ZINC000541315701    0.0700
     31 H31       -10.5427   -4.6477   56.5368 H       1  ZINC000541315701    0.1200
     32 H32       -11.1941   -4.6743   58.2057 H       1  ZINC000541315701    0.1100
     33 H33       -15.0178   -4.3189   55.5570 H       1  ZINC000541315701    0.0900
     34 H34       -15.1252   -2.5995   56.0044 H       1  ZINC000541315701    0.0700
     35 H35       -14.4249   -3.0691   54.4368 H       1  ZINC000541315701    0.0600
     36 H36       -11.3797   -4.1857   54.4607 H       1  ZINC000541315701    0.1300
     37 H37       -10.2641   -3.8484   52.2916 H       1  ZINC000541315701    0.1400
     38 H38        -9.8311   -1.5680   51.4710 H       1  ZINC000541315701    0.1400
     39 H39       -11.6380    0.0385   54.9870 H       1  ZINC000541315701    0.1400
     40 H40       -13.8908    1.1406   61.7260 H       1  ZINC000541315701    0.1700
     41 H41       -12.5588    0.7347   63.7529 H       1  ZINC000541315701    0.1500
     42 H42       -10.4493   -0.5704   63.5859 H       1  ZINC000541315701    0.1500
@<TRIPOS>BOND
     1     1     2    1
     2     1    28    1
     3     1    29    1
     4     1    30    1
     5     2     3   am
     6     2    21    1
     7     3     4    2
     8     3     5    1
     9     5     6    1
    10     5    12    1
    11     5     7    1
    12     7     8    1
    13     7    31    1
    14     7    32    1
    15     8     9    2
    16     8    10   am
    17    10    11    1
    18    10    12    1
    19    11    33    1
    20    11    34    1
    21    11    35    1
    22    12    13    1
    23    12    14    1
    24    14    20   ar
    25    14    15   ar
    26    15    16   ar
    27    15    36    1
    28    16    17   ar
    29    16    37    1
    30    17    18   ar
    31    17    38    1
    32    18    19    1
    33    18    20   ar
    34    20    39    1
    35    21    26   ar
    36    21    22   ar
    37    22    23   ar
    38    23    24   ar
    39    23    40    1
    40    24    25   ar
    41    24    41    1
    42    25    26   ar
    43    25    42    1
    44    26    27    1
@<TRIPOS>SUBSTRUCTURE
     1 ZINC000541315701        1 TEMP              0 ****  ****    0 ROOT


##########                                Name:    ZINC000648570180
##########                DOCK_Rotatable_Bonds:                   4
##########                         Heavy_Atoms:                  25
##########                    Molecular_Weight:             342.484
##########                DOCK_Rotatable_Bonds:                   4
##########                       Formal_Charge:          0.00999971
##########                     HBond_Acceptors:                   5
##########                        HBond_Donors:                   0
##########                         Heavy_Atoms:                  25
##########                          Grid_Score:          -28.088995
##########                     Grid_vdw_energy:          -26.837692
##########                      Grid_es_energy:           -1.251303
##########           Internal_energy_repulsive:           81.548668

@<TRIPOS>MOLECULE
ZINC000648570180
 55 58 1 0 0
SMALL
USER_CHARGES


@<TRIPOS>ATOM
      1 C1         -7.9740    3.6567   57.4824 C.3     1  ZINC000648570180   -0.1500
      2 C2         -8.6272    3.3014   56.1452 C.3     1  ZINC000648570180   -0.0600
      3 C3         -9.4196    4.4980   55.6151 C.3     1  ZINC000648570180   -0.1400
      4 C4         -7.5482    2.8864   55.1237 C.3     1  ZINC000648570180   -0.1200
      5 C5         -8.2106    1.7437   54.3147 C.3     1  ZINC000648570180   -0.1300
      6 C6         -9.0117    0.9784   55.3971 C.3     1  ZINC000648570180   -0.1200
      7 C7         -9.5577    2.0883   56.3190 C.3     1  ZINC000648570180   -0.0700
      8 H8        -10.5737    2.3519   56.0248 H       1  ZINC000648570180    0.0800
      9 C9         -9.5396    1.6167   57.7744 C.3     1  ZINC000648570180   -0.1000
     10 H10        -8.5250    1.6241   58.1727 H       1  ZINC000648570180    0.1000
     11 C11       -10.4871    2.4786   58.6501 C.3     1  ZINC000648570180   -0.1400
     12 C12       -10.8688    1.5174   59.7955 C.3     1  ZINC000648570180    0.1200
     13 N13       -10.6517    0.1478   59.3067 N.am    1  ZINC000648570180   -0.6000
     14 C14       -10.8515   -0.9803   60.0163 C.2     1  ZINC000648570180    0.5800
     15 O15       -11.2456   -0.9146   61.1635 O.2     1  ZINC000648570180   -0.5200
     16 C16       -10.5900   -2.3037   59.3960 C.ar    1  ZINC000648570180    0.1600
     17 C17        -9.6804   -3.1889   59.9737 C.ar    1  ZINC000648570180   -0.2000
     18 C18        -9.4692   -4.4149   59.3577 C.ar    1  ZINC000648570180    0.1800
     19 N19       -10.1312   -4.7039   58.2515 N.ar    1  ZINC000648570180   -0.5400
     20 C20       -10.9899   -3.8414   57.7256 C.ar    1  ZINC000648570180    0.4800
     21 N21       -11.6632   -4.1831   56.5653 N.3     1  ZINC000648570180   -0.4400
     22 C22       -13.1279   -4.2551   56.8012 C.3     1  ZINC000648570180    0.0500
     23 C23       -13.7236   -4.1139   55.3778 C.3     1  ZINC000648570180   -0.1200
     24 C24       -12.7804   -3.0878   54.7087 C.3     1  ZINC000648570180   -0.1300
     25 C25       -11.4732   -3.1544   55.5198 C.3     1  ZINC000648570180    0.0400
     26 N26       -11.2241   -2.6652   58.2833 N.ar    1  ZINC000648570180   -0.5000
     27 C27       -10.1794    0.2127   57.9112 C.3     1  ZINC000648570180    0.1100
     28 H28        -7.5049    2.7682   57.9050 H       1  ZINC000648570180    0.0600
     29 H29        -7.2184    4.4262   57.3245 H       1  ZINC000648570180    0.0500
     30 H30        -8.7334    4.0287   58.1702 H       1  ZINC000648570180    0.0700
     31 H31        -8.7498    5.3480   55.4839 H       1  ZINC000648570180    0.0500
     32 H32        -9.8705    4.2395   54.6570 H       1  ZINC000648570180    0.0500
     33 H33       -10.2028    4.7592   56.3267 H       1  ZINC000648570180    0.0500
     34 H34        -7.3001    3.7226   54.4700 H       1  ZINC000648570180    0.0600
     35 H35        -6.6570    2.5241   55.6362 H       1  ZINC000648570180    0.0700
     36 H36        -8.8779    2.1465   53.5527 H       1  ZINC000648570180    0.0700
     37 H37        -7.4544    1.0994   53.8661 H       1  ZINC000648570180    0.0700
     38 H38        -9.8317    0.4222   54.9428 H       1  ZINC000648570180    0.0700
     39 H39        -8.3569    0.3080   55.9536 H       1  ZINC000648570180    0.0700
     40 H40        -9.9646    3.3529   59.0383 H       1  ZINC000648570180    0.0900
     41 H41       -11.3707    2.7754   58.0851 H       1  ZINC000648570180    0.0800
     42 H42       -10.2369    1.7057   60.6635 H       1  ZINC000648570180    0.0800
     43 H43       -11.9170    1.6545   60.0607 H       1  ZINC000648570180    0.0700
     44 H44        -9.1524   -2.9268   60.8787 H       1  ZINC000648570180    0.1600
     45 H45        -8.7716   -5.1243   59.7778 H       1  ZINC000648570180    0.1800
     46 H46       -13.4004   -5.2155   57.2388 H       1  ZINC000648570180    0.1000
     47 H47       -13.4556   -3.4339   57.4386 H       1  ZINC000648570180    0.0500
     48 H48       -13.6928   -5.0673   54.8505 H       1  ZINC000648570180    0.0800
     49 H49       -14.7425   -3.7294   55.4226 H       1  ZINC000648570180    0.0800
     50 H50       -12.5960   -3.3644   53.6705 H       1  ZINC000648570180    0.0800
     51 H51       -13.2095   -2.0874   54.7640 H       1  ZINC000648570180    0.0700
     52 H52       -11.2734   -2.1877   55.9820 H       1  ZINC000648570180    0.0900
     53 H53       -10.6458   -3.4355   54.8683 H       1  ZINC000648570180    0.0900
     54 H54       -11.0176    0.1097   57.2220 H       1  ZINC000648570180    0.0700
     55 H55        -9.4371   -0.5635   57.7254 H       1  ZINC000648570180    0.0800
@<TRIPOS>BOND
     1     1     2    1
     2     1    28    1
     3     1    29    1
     4     1    30    1
     5     2     7    1
     6     2     3    1
     7     2     4    1
     8     3    31    1
     9     3    32    1
    10     3    33    1
    11     4     5    1
    12     4    34    1
    13     4    35    1
    14     5     6    1
    15     5    36    1
    16     5    37    1
    17     6     7    1
    18     6    38    1
    19     6    39    1
    20     7     8    1
    21     7     9    1
    22     9    10    1
    23     9    27    1
    24     9    11    1
    25    11    12    1
    26    11    40    1
    27    11    41    1
    28    12    13    1
    29    12    42    1
    30    12    43    1
    31    13    14   am
    32    13    27    1
    33    14    15    2
    34    14    16    1
    35    16    26   ar
    36    16    17   ar
    37    17    18   ar
    38    17    44    1
    39    18    19   ar
    40    18    45    1
    41    19    20   ar
    42    20    21    1
    43    20    26   ar
    44    21    25    1
    45    21    22    1
    46    22    23    1
    47    22    46    1
    48    22    47    1
    49    23    24    1
    50    23    48    1
    51    23    49    1
    52    24    25    1
    53    24    50    1
    54    24    51    1
    55    25    52    1
    56    25    53    1
    57    27    54    1
    58    27    55    1
@<TRIPOS>SUBSTRUCTURE
     1 ZINC000648570180        1 TEMP              0 ****  ****    0 ROOT


##########                                Name:    ZINC000965273005
##########                DOCK_Rotatable_Bonds:                   7
##########                         Heavy_Atoms:                  27
##########                    Molecular_Weight:             368.436
##########                DOCK_Rotatable_Bonds:                   7
##########                       Formal_Charge:           0.0100003
##########                     HBond_Acceptors:                   7
##########                        HBond_Donors:                   2
##########                         Heavy_Atoms:                  27
##########                          Grid_Score:          -27.979630
##########                     Grid_vdw_energy:          -26.933273
##########                      Grid_es_energy:           -1.046356
##########           Internal_energy_repulsive:            9.709358

@<TRIPOS>MOLECULE
ZINC000965273005
 51 54 1 0 0
SMALL
USER_CHARGES


@<TRIPOS>ATOM
      1 C1        -13.8908    0.5213   53.9582 C.3     1  ZINC000965273005   -0.1200
      2 C2        -14.0320   -0.2857   52.6934 C.ar    1  ZINC000965273005   -0.0300
      3 C3        -13.5705    0.2198   51.4958 C.ar    1  ZINC000965273005   -0.1200
      4 C4        -13.6994   -0.5199   50.3335 C.ar    1  ZINC000965273005   -0.0900
      5 C5        -14.2907   -1.7701   50.3640 C.ar    1  ZINC000965273005   -0.1300
      6 C6        -14.7565   -2.2875   51.5553 C.ar    1  ZINC000965273005   -0.0900
      7 C7        -14.6249   -1.5489   52.7320 C.ar    1  ZINC000965273005   -0.1300
      8 C8        -15.1218   -2.0969   54.0121 C.2     1  ZINC000965273005    0.5800
      9 O9        -16.2639   -1.8766   54.3650 O.2     1  ZINC000965273005   -0.5200
     10 N10       -14.3084   -2.8407   54.7877 N.am    1  ZINC000965273005   -0.6100
     11 C11       -12.9055   -3.1785   54.4855 C.3     1  ZINC000965273005    0.0900
     12 C12       -12.2610   -3.4662   55.8643 C.3     1  ZINC000965273005    0.1500
     13 H13       -11.3989   -4.1256   55.7627 H       1  ZINC000965273005    0.1200
     14 N14       -11.8892   -2.2209   56.5405 N.am    1  ZINC000965273005   -0.7100
     15 C15       -10.8194   -2.1923   57.3596 C.2     1  ZINC000965273005    0.6000
     16 O16       -10.1636   -3.2007   57.5388 O.2     1  ZINC000965273005   -0.5400
     17 C17       -10.4441   -0.9386   58.0386 C.2     1  ZINC000965273005   -0.2800
     18 C18       -10.7456    0.3418   57.6203 C.2     1  ZINC000965273005    0.1000
     19 N19       -10.2217    1.1917   58.5180 N.pl3   1  ZINC000965273005   -0.3600
     20 C20       -10.3058    2.6533   58.4636 C.3     1  ZINC000965273005    0.1000
     21 N21        -9.5825    0.4460   59.5146 N.2     1  ZINC000965273005   -0.3000
     22 C22        -9.7138   -0.8230   59.2426 C.2     1  ZINC000965273005    0.1700
     23 C23        -9.1725   -1.9652   60.0631 C.3     1  ZINC000965273005   -0.0800
     24 C24        -9.0310   -1.7472   61.5709 C.3     1  ZINC000965273005   -0.1700
     25 C25       -10.1344   -2.6586   61.0300 C.3     1  ZINC000965273005   -0.1600
     26 C26       -13.4216   -4.1787   56.6080 C.3     1  ZINC000965273005    0.0900
     27 H27       -13.4532   -5.2371   56.3494 H       1  ZINC000965273005    0.0900
     28 O28       -13.2960   -4.0090   58.0213 O.3     1  ZINC000965273005   -0.5500
     29 C29       -14.6711   -3.4444   56.0783 C.3     1  ZINC000965273005    0.0600
     30 H30       -12.9839    0.2198   54.4823 H       1  ZINC000965273005    0.0800
     31 H31       -13.8311    1.5807   53.7086 H       1  ZINC000965273005    0.0700
     32 H32       -14.7554    0.3472   54.5987 H       1  ZINC000965273005    0.0700
     33 H33       -13.1078    1.1953   51.4653 H       1  ZINC000965273005    0.1300
     34 H34       -13.3370   -0.1193   49.3983 H       1  ZINC000965273005    0.1300
     35 H35       -14.3882   -2.3425   49.4532 H       1  ZINC000965273005    0.1300
     36 H36       -15.2183   -3.2636   51.5777 H       1  ZINC000965273005    0.1300
     37 H37       -12.8565   -4.0638   53.8515 H       1  ZINC000965273005    0.0900
     38 H38       -12.4084   -2.3371   54.0026 H       1  ZINC000965273005    0.0900
     39 H39       -12.4130   -1.4169   56.3985 H       1  ZINC000965273005    0.4000
     40 H40       -11.3003    0.6106   56.7335 H       1  ZINC000965273005    0.1800
     41 H41       -11.2012    2.9856   58.9889 H       1  ZINC000965273005    0.0800
     42 H42        -9.4248    3.0858   58.9377 H       1  ZINC000965273005    0.1000
     43 H43       -10.3540    2.9759   57.4236 H       1  ZINC000965273005    0.0900
     44 H44        -8.4214   -2.5832   59.5710 H       1  ZINC000965273005    0.1400
     45 H45        -8.1865   -2.2214   62.0710 H       1  ZINC000965273005    0.1000
     46 H46        -9.3295   -0.7775   61.9694 H       1  ZINC000965273005    0.1000
     47 H47       -11.1588   -2.2885   61.0727 H       1  ZINC000965273005    0.0900
     48 H48       -10.0159   -3.7325   61.1743 H       1  ZINC000965273005    0.1000
     49 H49       -13.4771   -3.1098   58.3272 H       1  ZINC000965273005    0.3900
     50 H50       -14.9728   -2.6700   56.7835 H       1  ZINC000965273005    0.0800
     51 H51       -15.4851   -4.1548   55.9338 H       1  ZINC000965273005    0.0800
@<TRIPOS>BOND
     1     1     2    1
     2     1    30    1
     3     1    31    1
     4     1    32    1
     5     2     7   ar
     6     2     3   ar
     7     3     4   ar
     8     3    33    1
     9     4     5   ar
    10     4    34    1
    11     5     6   ar
    12     5    35    1
    13     6     7   ar
    14     6    36    1
    15     7     8    1
    16     8     9    2
    17     8    10   am
    18    10    29    1
    19    10    11    1
    20    11    12    1
    21    11    37    1
    22    11    38    1
    23    12    13    1
    24    12    14    1
    25    12    26    1
    26    14    15   am
    27    14    39    1
    28    15    16    2
    29    15    17    1
    30    17    22    1
    31    17    18    2
    32    18    19    1
    33    18    40    1
    34    19    20    1
    35    19    21    1
    36    20    41    1
    37    20    42    1
    38    20    43    1
    39    21    22    2
    40    22    23    1
    41    23    25    1
    42    23    24    1
    43    23    44    1
    44    24    25    1
    45    24    45    1
    46    24    46    1
    47    25    47    1
    48    25    48    1
    49    26    27    1
    50    26    28    1
    51    26    29    1
    52    28    49    1
    53    29    50    1
    54    29    51    1
@<TRIPOS>SUBSTRUCTURE
     1 ZINC000965273005        1 TEMP              0 ****  ****    0 ROOT


##########                                Name:    ZINC000845755710
##########                DOCK_Rotatable_Bonds:                   3
##########                         Heavy_Atoms:                  24
##########                    Molecular_Weight:             349.814
##########                DOCK_Rotatable_Bonds:                   3
##########                       Formal_Charge:         -0.00999974
##########                     HBond_Acceptors:                   6
##########                        HBond_Donors:                   0
##########                         Heavy_Atoms:                  24
##########                          Grid_Score:          -27.954887
##########                     Grid_vdw_energy:          -27.355412
##########                      Grid_es_energy:           -0.599475
##########           Internal_energy_repulsive:           21.108471

@<TRIPOS>MOLECULE
ZINC000845755710
 44 47 1 0 0
SMALL
USER_CHARGES


@<TRIPOS>ATOM
      1 C1        -14.9673   -0.8814   53.5855 C.3     1  ZINC000845755710   -0.1700
      2 C2        -14.2671   -1.8519   52.6322 C.3     1  ZINC000845755710    0.2600
      3 C3        -13.6956   -3.0289   53.4252 C.3     1  ZINC000845755710   -0.0900
      4 C4        -12.5624   -2.5338   54.3269 C.3     1  ZINC000845755710   -0.1300
      5 C5        -11.9698   -3.7203   55.0934 C.3     1  ZINC000845755710    0.1100
      6 N6        -13.0524   -4.4097   55.8085 N.am    1  ZINC000845755710   -0.6000
      7 C7        -12.9650   -4.6353   57.1344 C.2     1  ZINC000845755710    0.5900
      8 O8        -13.8683   -5.2072   57.7149 O.2     1  ZINC000845755710   -0.5200
      9 C9        -11.7777   -4.1902   57.8794 C.2     1  ZINC000845755710   -0.2200
     10 C10       -10.5196   -4.7027   57.8022 C.2     1  ZINC000845755710    0.0600
     11 O11        -9.7059   -4.0366   58.6296 O.3     1  ZINC000845755710   -0.1800
     12 C12       -10.3666   -3.0629   59.2898 C.ar    1  ZINC000845755710    0.0500
     13 C13        -9.9750   -2.1221   60.2341 C.ar    1  ZINC000845755710   -0.0900
     14 C14       -10.8966   -1.2322   60.7437 C.ar    1  ZINC000845755710   -0.0800
     15 C15       -12.2184   -1.2648   60.3231 C.ar    1  ZINC000845755710   -0.0400
     16 Cl16      -13.3632   -0.1357   60.9778 Cl      1  ZINC000845755710   -0.0600
     17 C17       -12.6253   -2.1919   59.3857 C.ar    1  ZINC000845755710   -0.0500
     18 C18       -11.7020   -3.0902   58.8617 C.ar    1  ZINC000845755710   -0.0900
     19 C19       -14.2325   -4.8478   55.0509 C.3     1  ZINC000845755710    0.1000
     20 C20       -14.7998   -3.6487   54.2847 C.3     1  ZINC000845755710   -0.1300
     21 O21       -15.2089   -2.3392   51.6615 O.3     1  ZINC000845755710   -0.3700
     22 C22       -15.0326   -1.4788   50.5104 C.3     1  ZINC000845755710    0.0100
     23 C23       -13.5043   -1.2271   50.5367 C.3     1  ZINC000845755710    0.0200
     24 O24       -13.2069   -1.1728   51.9465 O.3     1  ZINC000845755710   -0.3800
     25 H25       -15.3687   -0.0414   53.0187 H       1  ZINC000845755710    0.0600
     26 H26       -15.7807   -1.3970   54.0961 H       1  ZINC000845755710    0.0800
     27 H27       -14.2512   -0.5145   54.3210 H       1  ZINC000845755710    0.0800
     28 H28       -13.3089   -3.7784   52.7347 H       1  ZINC000845755710    0.0900
     29 H29       -11.7870   -2.0715   53.7159 H       1  ZINC000845755710    0.0800
     30 H30       -12.9533   -1.8023   55.0341 H       1  ZINC000845755710    0.0800
     31 H31       -11.4981   -4.4092   54.3928 H       1  ZINC000845755710    0.0700
     32 H32       -11.2304   -3.3605   55.8090 H       1  ZINC000845755710    0.1000
     33 H33       -10.2223   -5.5246   57.1680 H       1  ZINC000845755710    0.2200
     34 H34        -8.9489   -2.0881   60.5692 H       1  ZINC000845755710    0.1500
     35 H35       -10.5867   -0.5029   61.4775 H       1  ZINC000845755710    0.1500
     36 H36       -13.6542   -2.2176   59.0582 H       1  ZINC000845755710    0.1400
     37 H37       -13.9454   -5.6287   54.3466 H       1  ZINC000845755710    0.0800
     38 H38       -14.9862   -5.2320   55.7382 H       1  ZINC000845755710    0.0900
     39 H39       -15.1697   -2.9068   54.9924 H       1  ZINC000845755710    0.0700
     40 H40       -15.6169   -3.9799   53.6438 H       1  ZINC000845755710    0.0800
     41 H41       -15.3285   -1.9885   49.5934 H       1  ZINC000845755710    0.1100
     42 H42       -15.5839   -0.5464   50.6320 H       1  ZINC000845755710    0.0800
     43 H43       -12.9702   -2.0500   50.0616 H       1  ZINC000845755710    0.0800
     44 H44       -13.2616   -0.2799   50.0550 H       1  ZINC000845755710    0.1000
@<TRIPOS>BOND
     1     1     2    1
     2     1    25    1
     3     1    26    1
     4     1    27    1
     5     2    24    1
     6     2     3    1
     7     2    21    1
     8     3    20    1
     9     3     4    1
    10     3    28    1
    11     4     5    1
    12     4    29    1
    13     4    30    1
    14     5     6    1
    15     5    31    1
    16     5    32    1
    17     6     7   am
    18     6    19    1
    19     7     8    2
    20     7     9    1
    21     9    18    1
    22     9    10    2
    23    10    11    1
    24    10    33    1
    25    11    12    1
    26    12    18   ar
    27    12    13   ar
    28    13    14   ar
    29    13    34    1
    30    14    15   ar
    31    14    35    1
    32    15    16    1
    33    15    17   ar
    34    17    18   ar
    35    17    36    1
    36    19    20    1
    37    19    37    1
    38    19    38    1
    39    20    39    1
    40    20    40    1
    41    21    22    1
    42    22    23    1
    43    22    41    1
    44    22    42    1
    45    23    24    1
    46    23    43    1
    47    23    44    1
@<TRIPOS>SUBSTRUCTURE
     1 ZINC000845755710        1 TEMP              0 ****  ****    0 ROOT


##########                                Name:    ZINC001010141213
##########                DOCK_Rotatable_Bonds:                   4
##########                         Heavy_Atoms:                  24
##########                    Molecular_Weight:             330.346
##########                DOCK_Rotatable_Bonds:                   4
##########                       Formal_Charge:          -0.0100003
##########                     HBond_Acceptors:                   9
##########                        HBond_Donors:                   1
##########                         Heavy_Atoms:                  24
##########                          Grid_Score:          -27.894432
##########                     Grid_vdw_energy:          -27.248844
##########                      Grid_es_energy:           -0.645589
##########           Internal_energy_repulsive:           17.633236

@<TRIPOS>MOLECULE
ZINC001010141213
 42 44 1 0 0
SMALL
USER_CHARGES


@<TRIPOS>ATOM
      1 C1        -14.1387   -5.7589   57.1312 C.3     1  ZINC001010141213   -0.0800
      2 C2        -14.2221   -4.5299   56.2630 C.2     1  ZINC001010141213   -0.1500
      3 C3        -14.1926   -3.2087   56.6740 C.2     1  ZINC001010141213   -0.0400
      4 C4        -14.0732   -2.7158   58.0554 C.2     1  ZINC001010141213    0.6000
      5 O5        -15.0708   -2.4107   58.6807 O.2     1  ZINC001010141213   -0.5100
      6 N6        -12.8582   -2.6027   58.6279 N.am    1  ZINC001010141213   -0.6100
      7 C7        -11.6438   -2.9619   57.8823 C.3     1  ZINC001010141213    0.0900
      8 C8        -10.6912   -1.7598   57.8889 C.3     1  ZINC001010141213    0.0700
      9 N9        -10.5571   -1.2745   59.2696 N.am    1  ZINC001010141213   -0.6000
     10 C10        -9.3422   -1.1604   59.8416 C.2     1  ZINC001010141213    0.5900
     11 O11        -8.3447   -1.4600   59.2148 O.2     1  ZINC001010141213   -0.5200
     12 C12        -9.2225   -0.6706   61.2319 C.2     1  ZINC001010141213    0.0300
     13 N13        -8.6661   -1.4303   62.1483 N.2     1  ZINC001010141213   -0.1800
     14 N14        -8.5388   -1.0510   63.3682 N.am    1  ZINC001010141213   -0.4400
     15 C15        -8.9697    0.1542   63.7850 C.2     1  ZINC001010141213    0.4800
     16 O16        -8.8338    0.4854   64.9511 O.2     1  ZINC001010141213   -0.5100
     17 C17        -9.5802    1.0330   62.8627 C.2     1  ZINC001010141213   -0.1800
     18 C18        -9.7027    0.6177   61.5699 C.2     1  ZINC001010141213   -0.0400
     19 C19       -11.7716   -0.9153   60.0152 C.3     1  ZINC001010141213    0.1000
     20 C20       -12.7238   -2.1120   60.0066 C.3     1  ZINC001010141213    0.1000
     21 N21       -14.2965   -2.4537   55.5402 N.pl3   1  ZINC001010141213   -0.2700
     22 C22       -14.3072   -0.9894   55.4990 C.3     1  ZINC001010141213    0.0900
     23 N23       -14.3829   -3.2238   54.5158 N.2     1  ZINC001010141213   -0.2800
     24 C24       -14.3394   -4.4822   54.8720 C.2     1  ZINC001010141213    0.0100
     25 H25       -13.0946   -6.0467   57.2542 H       1  ZINC001010141213    0.0700
     26 H26       -14.5737   -5.5443   58.1074 H       1  ZINC001010141213    0.0600
     27 H27       -14.6875   -6.5744   56.6603 H       1  ZINC001010141213    0.0700
     28 H28       -11.1604   -3.8143   58.3595 H       1  ZINC001010141213    0.0800
     29 H29       -11.9065   -3.2147   56.8552 H       1  ZINC001010141213    0.1000
     30 H30        -9.7150   -2.0647   57.5119 H       1  ZINC001010141213    0.1400
     31 H31       -11.0976   -0.9674   57.2604 H       1  ZINC001010141213    0.0800
     32 H32        -8.1208   -1.6494   64.0072 H       1  ZINC001010141213    0.4500
     33 H33        -9.9347    2.0054   63.1710 H       1  ZINC001010141213    0.1700
     34 H34       -10.1614    1.2513   60.8253 H       1  ZINC001010141213    0.1700
     35 H35       -11.5089   -0.6623   61.0424 H       1  ZINC001010141213    0.1100
     36 H36       -12.2551   -0.0627   59.5381 H       1  ZINC001010141213    0.0800
     37 H37       -13.6996   -1.8057   60.3839 H       1  ZINC001010141213    0.1100
     38 H38       -12.3190   -2.9060   60.6340 H       1  ZINC001010141213    0.0800
     39 H39       -13.2977   -0.6238   55.3109 H       1  ZINC001010141213    0.0900
     40 H40       -14.9699   -0.6532   54.7016 H       1  ZINC001010141213    0.1000
     41 H41       -14.6620   -0.6016   56.4539 H       1  ZINC001010141213    0.0900
     42 H42       -14.3919   -5.3330   54.2088 H       1  ZINC001010141213    0.1900
@<TRIPOS>BOND
     1     1     2    1
     2     1    25    1
     3     1    26    1
     4     1    27    1
     5     2    24    1
     6     2     3    2
     7     3     4    1
     8     3    21    1
     9     4     5    2
    10     4     6   am
    11     6    20    1
    12     6     7    1
    13     7     8    1
    14     7    28    1
    15     7    29    1
    16     8     9    1
    17     8    30    1
    18     8    31    1
    19     9    10   am
    20     9    19    1
    21    10    11    2
    22    10    12    1
    23    12    18    1
    24    12    13    2
    25    13    14    1
    26    14    15   am
    27    14    32    1
    28    15    16    2
    29    15    17    1
    30    17    18    2
    31    17    33    1
    32    18    34    1
    33    19    20    1
    34    19    35    1
    35    19    36    1
    36    20    37    1
    37    20    38    1
    38    21    22    1
    39    21    23    1
    40    22    39    1
    41    22    40    1
    42    22    41    1
    43    23    24    2
    44    24    42    1
@<TRIPOS>SUBSTRUCTURE
     1 ZINC001010141213        1 TEMP              0 ****  ****    0 ROOT


##########                                Name:    ZINC001013196242
##########                DOCK_Rotatable_Bonds:                   5
##########                         Heavy_Atoms:                  24
##########                    Molecular_Weight:              349.86
##########                DOCK_Rotatable_Bonds:                   5
##########                       Formal_Charge:        -3.05474e-07
##########                     HBond_Acceptors:                   6
##########                        HBond_Donors:                   1
##########                         Heavy_Atoms:                  24
##########                          Grid_Score:          -27.878803
##########                     Grid_vdw_energy:          -27.098852
##########                      Grid_es_energy:           -0.779952
##########           Internal_energy_repulsive:           10.776689

@<TRIPOS>MOLECULE
ZINC001013196242
 48 51 1 0 0
SMALL
USER_CHARGES


@<TRIPOS>ATOM
      1 C1        -11.4158   -3.4704   55.6768 C.3     1  ZINC001013196242   -0.1600
      2 C2        -11.7018   -2.0185   56.0656 C.3     1  ZINC001013196242    0.1400
      3 H3        -12.7772   -1.8627   56.1506 H       1  ZINC001013196242    0.0800
      4 C4        -11.1157   -1.0652   55.0029 C.3     1  ZINC001013196242   -0.1400
      5 C5        -10.5728    0.1128   55.8544 C.3     1  ZINC001013196242    0.1300
      6 H6        -11.3691    0.8141   56.1036 H       1  ZINC001013196242    0.1100
      7 N7         -9.4727    0.7939   55.1674 N.am    1  ZINC001013196242   -0.7200
      8 C8         -9.7374    1.7171   54.2219 C.2     1  ZINC001013196242    0.5400
      9 O9        -10.8863    1.9851   53.9409 O.2     1  ZINC001013196242   -0.5200
     10 C10        -8.6057    2.4165   53.5140 C.3     1  ZINC001013196242   -0.1400
     11 C11        -8.4470    1.9966   52.0420 C.3     1  ZINC001013196242   -0.0800
     12 C12        -9.4189    3.1313   51.7007 C.3     1  ZINC001013196242   -0.1600
     13 C13        -9.7070    3.7601   50.3420 C.3     1  ZINC001013196242   -0.1700
     14 C14       -10.8196    3.0369   51.1059 C.3     1  ZINC001013196242   -0.1400
     15 C15        -8.9753    3.8180   52.9969 C.3     1  ZINC001013196242   -0.0800
     16 C16       -10.0668   -0.6250   57.1191 C.3     1  ZINC001013196242    0.0800
     17 N17       -11.0487   -1.7057   57.3451 N.am    1  ZINC001013196242   -0.6000
     18 C18       -11.3002   -2.3040   58.5262 C.2     1  ZINC001013196242    0.6100
     19 O19       -12.1332   -3.1886   58.5951 O.2     1  ZINC001013196242   -0.5400
     20 C20       -10.5700   -1.8892   59.7286 C.2     1  ZINC001013196242   -0.0400
     21 C21       -10.8041   -0.7519   60.4724 C.2     1  ZINC001013196242   -0.1400
     22 C22        -9.8829   -0.7522   61.5252 C.2     1  ZINC001013196242   -0.1200
     23 Cl23       -9.7436    0.4582   62.7618 Cl      1  ZINC001013196242   -0.0400
     24 C24        -9.1190   -1.8654   61.4086 C.2     1  ZINC001013196242    0.0400
     25 N25        -9.5302   -2.5673   60.3233 N.pl3   1  ZINC001013196242   -0.4000
     26 C26        -8.9576   -3.8325   59.8568 C.3     1  ZINC001013196242    0.0700
     27 H27       -11.8275   -4.1373   56.4343 H       1  ZINC001013196242    0.0700
     28 H28       -11.8773   -3.6861   54.7131 H       1  ZINC001013196242    0.0700
     29 H29       -10.3387   -3.6221   55.6058 H       1  ZINC001013196242    0.0600
     30 H30       -10.3076   -1.5493   54.4546 H       1  ZINC001013196242    0.0900
     31 H31       -11.8941   -0.7220   54.3216 H       1  ZINC001013196242    0.0900
     32 H32        -8.5537    0.5804   55.3931 H       1  ZINC001013196242    0.4000
     33 H33        -7.6738    2.3917   54.0789 H       1  ZINC001013196242    0.1000
     34 H34        -7.4415    2.1494   51.6498 H       1  ZINC001013196242    0.1000
     35 H35        -8.8409    1.0036   51.8258 H       1  ZINC001013196242    0.0700
     36 H36        -9.7562    4.8478   50.2907 H       1  ZINC001013196242    0.1000
     37 H37        -9.2973    3.2656   49.4613 H       1  ZINC001013196242    0.0900
     38 H38       -11.1416    2.0667   50.7277 H       1  ZINC001013196242    0.0900
     39 H39       -11.6006    3.6489   51.5573 H       1  ZINC001013196242    0.1000
     40 H40        -9.7927    4.2852   53.5461 H       1  ZINC001013196242    0.0800
     41 H41        -8.1168    4.4777   52.8705 H       1  ZINC001013196242    0.0900
     42 H42        -9.0753   -1.0422   56.9437 H       1  ZINC001013196242    0.0800
     43 H43       -10.0485    0.0535   57.9721 H       1  ZINC001013196242    0.1000
     44 H44       -11.5565   -0.0018   60.2783 H       1  ZINC001013196242    0.1600
     45 H45        -8.3165   -2.1493   62.0733 H       1  ZINC001013196242    0.1800
     46 H46        -9.5441   -4.6633   60.2492 H       1  ZINC001013196242    0.0800
     47 H47        -8.9739   -3.8589   58.7673 H       1  ZINC001013196242    0.1000
     48 H48        -7.9288   -3.9168   60.2071 H       1  ZINC001013196242    0.0900
@<TRIPOS>BOND
     1     1     2    1
     2     1    27    1
     3     1    28    1
     4     1    29    1
     5     2     3    1
     6     2    17    1
     7     2     4    1
     8     4     5    1
     9     4    30    1
    10     4    31    1
    11     5     6    1
    12     5     7    1
    13     5    16    1
    14     7     8   am
    15     7    32    1
    16     8     9    2
    17     8    10    1
    18    10    15    1
    19    10    11    1
    20    10    33    1
    21    11    12    1
    22    11    34    1
    23    11    35    1
    24    12    14    1
    25    12    13    1
    26    12    15    1
    27    13    14    1
    28    13    36    1
    29    13    37    1
    30    14    38    1
    31    14    39    1
    32    15    40    1
    33    15    41    1
    34    16    17    1
    35    16    42    1
    36    16    43    1
    37    17    18   am
    38    18    19    2
    39    18    20    1
    40    20    25    1
    41    20    21    2
    42    21    22    1
    43    21    44    1
    44    22    23    1
    45    22    24    2
    46    24    25    1
    47    24    45    1
    48    25    26    1
    49    26    46    1
    50    26    47    1
    51    26    48    1
@<TRIPOS>SUBSTRUCTURE
     1 ZINC001013196242        1 TEMP              0 ****  ****    0 ROOT


##########                                Name:    ZINC000002873519
##########                DOCK_Rotatable_Bonds:                   5
##########                         Heavy_Atoms:                  25
##########                    Molecular_Weight:             375.207
##########                DOCK_Rotatable_Bonds:                   5
##########                       Formal_Charge:               -0.02
##########                     HBond_Acceptors:                   6
##########                        HBond_Donors:                   0
##########                         Heavy_Atoms:                  25
##########                          Grid_Score:          -27.866447
##########                     Grid_vdw_energy:          -27.720945
##########                      Grid_es_energy:           -0.145501
##########           Internal_energy_repulsive:           10.254627

@<TRIPOS>MOLECULE
ZINC000002873519
 37 39 1 0 0
SMALL
USER_CHARGES


@<TRIPOS>ATOM
      1 C1        -13.3258   -4.5020   54.9067 C.3     1  ZINC000002873519   -0.1500
      2 C2        -12.4525   -3.2962   54.6730 C.2     1  ZINC000002873519    0.4500
      3 O3        -11.8876   -3.1556   53.6142 O.2     1  ZINC000002873519   -0.4800
      4 O4        -12.3025   -2.3780   55.6413 O.3     1  ZINC000002873519   -0.2900
      5 C5        -13.2986   -2.2809   56.5582 C.ar    1  ZINC000002873519    0.1200
      6 C6        -14.4786   -1.6309   56.2374 C.ar    1  ZINC000002873519   -0.1100
      7 C7        -15.4930   -1.5326   57.1709 C.ar    1  ZINC000002873519   -0.0800
      8 C8        -15.3411   -2.0820   58.4352 C.ar    1  ZINC000002873519   -0.0400
      9 Cl9       -16.6261   -1.9493   59.5948 Cl      1  ZINC000002873519   -0.0500
     10 C10       -14.1749   -2.7331   58.7754 C.ar    1  ZINC000002873519   -0.0800
     11 C11       -13.1396   -2.8452   57.8371 C.ar    1  ZINC000002873519   -0.0700
     12 C12       -11.8978   -3.5351   58.1889 C.2     1  ZINC000002873519    0.0400
     13 C13       -11.0964   -3.0420   59.2000 C.2     1  ZINC000002873519   -0.1900
     14 C14       -11.3255   -1.8501   60.0348 C.2     1  ZINC000002873519   -0.2000
     15 C15       -10.2777   -1.7689   60.8817 C.2     1  ZINC000002873519    0.1200
     16 C16       -10.1085   -0.7123   61.8989 C.ar    1  ZINC000002873519   -0.0400
     17 C17       -11.0736    0.2877   62.0388 C.ar    1  ZINC000002873519   -0.0800
     18 C18       -10.9095    1.2718   62.9908 C.ar    1  ZINC000002873519   -0.1100
     19 C19        -9.7906    1.2702   63.8070 C.ar    1  ZINC000002873519   -0.0200
     20 Cl20       -9.5915    2.5126   65.0030 Cl      1  ZINC000002873519   -0.0600
     21 C21        -8.8301    0.2814   63.6734 C.ar    1  ZINC000002873519   -0.1100
     22 C22        -8.9854   -0.7119   62.7295 C.ar    1  ZINC000002873519   -0.0800
     23 O23        -9.4059   -2.7771   60.6797 O.3     1  ZINC000002873519   -0.2600
     24 C24        -9.8200   -3.5931   59.6937 C.2     1  ZINC000002873519    0.5200
     25 O25        -9.2493   -4.5863   59.2835 O.2     1  ZINC000002873519   -0.4200
     26 H26       -12.7258   -5.3091   55.3270 H       1  ZINC000002873519    0.1100
     27 H27       -14.1245   -4.2430   55.6018 H       1  ZINC000002873519    0.1000
     28 H28       -13.7588   -4.8260   53.9603 H       1  ZINC000002873519    0.1100
     29 H29       -14.6063   -1.1996   55.2555 H       1  ZINC000002873519    0.1500
     30 H30       -16.4105   -1.0241   56.9141 H       1  ZINC000002873519    0.1500
     31 H31       -14.0605   -3.1591   59.7612 H       1  ZINC000002873519    0.1500
     32 H32       -11.6080   -4.4298   57.6579 H       1  ZINC000002873519    0.1500
     33 H33       -12.1658   -1.1739   59.9796 H       1  ZINC000002873519    0.1700
     34 H34       -11.9462    0.2904   61.4024 H       1  ZINC000002873519    0.1400
     35 H35       -11.6550    2.0456   63.0999 H       1  ZINC000002873519    0.1400
     36 H36        -7.9596    0.2859   64.3128 H       1  ZINC000002873519    0.1400
     37 H37        -8.2357   -1.4824   62.6263 H       1  ZINC000002873519    0.1400
@<TRIPOS>BOND
     1     1     2    1
     2     1    26    1
     3     1    27    1
     4     1    28    1
     5     2     3    2
     6     2     4    1
     7     4     5    1
     8     5    11   ar
     9     5     6   ar
    10     6     7   ar
    11     6    29    1
    12     7     8   ar
    13     7    30    1
    14     8     9    1
    15     8    10   ar
    16    10    11   ar
    17    10    31    1
    18    11    12    1
    19    12    13    2
    20    12    32    1
    21    13    24    1
    22    13    14    1
    23    14    15    2
    24    14    33    1
    25    15    16    1
    26    15    23    1
    27    16    22   ar
    28    16    17   ar
    29    17    18   ar
    30    17    34    1
    31    18    19   ar
    32    18    35    1
    33    19    20    1
    34    19    21   ar
    35    21    22   ar
    36    21    36    1
    37    22    37    1
    38    23    24    1
    39    24    25    2
@<TRIPOS>SUBSTRUCTURE
     1 ZINC000002873519        1 TEMP              0 ****  ****    0 ROOT


##########                                Name:    ZINC000793092912
##########                DOCK_Rotatable_Bonds:                   4
##########                         Heavy_Atoms:                  26
##########                    Molecular_Weight:               407.2
##########                DOCK_Rotatable_Bonds:                   4
##########                       Formal_Charge:         2.90573e-07
##########                     HBond_Acceptors:                  10
##########                        HBond_Donors:                   1
##########                         Heavy_Atoms:                  26
##########                          Grid_Score:          -27.804579
##########                     Grid_vdw_energy:          -28.512856
##########                      Grid_es_energy:            0.708277
##########           Internal_energy_repulsive:           10.253886

@<TRIPOS>MOLECULE
ZINC000793092912
 40 43 1 0 0
SMALL
USER_CHARGES


@<TRIPOS>ATOM
      1 C1        -14.7819   -2.9382   56.1876 C.3     1  ZINC000793092912   -0.1300
      2 C2        -13.3592   -2.7674   56.7241 C.3     1  ZINC000793092912   -0.0800
      3 C3        -13.2160   -1.7890   57.8797 C.3     1  ZINC000793092912   -0.1100
      4 C4        -12.4611   -2.3845   59.0533 C.3     1  ZINC000793092912    0.1100
      5 N5        -11.3189   -3.1725   58.6222 N.am    1  ZINC000793092912   -0.5700
      6 C6        -10.0980   -2.8629   59.1017 C.2     1  ZINC000793092912    0.5100
      7 O7         -9.1291   -3.5068   58.7561 O.2     1  ZINC000793092912   -0.5100
      8 C8         -9.9373   -1.7275   60.0583 C.2     1  ZINC000793092912    0.5100
      9 O9         -9.7151   -0.6094   59.6412 O.2     1  ZINC000793092912   -0.4900
     10 N10       -10.0390   -1.9441   61.3846 N.am    1  ZINC000793092912   -0.6400
     11 C11        -9.8885   -0.8807   62.2804 C.ar    1  ZINC000793092912    0.1600
     12 C12       -10.9187    0.0347   62.4511 C.ar    1  ZINC000793092912   -0.1200
     13 C13       -10.7714    1.0859   63.3358 C.ar    1  ZINC000793092912   -0.0600
     14 C14        -9.5957    1.2301   64.0545 C.ar    1  ZINC000793092912    0.0200
     15 O15        -9.2060    2.1633   64.9725 O.3     1  ZINC000793092912   -0.2800
     16 C16        -8.0866    1.5783   65.6638 C.3     1  ZINC000793092912    0.5700
     17 F17        -7.1570    2.5628   66.0154 F       1  ZINC000793092912   -0.1100
     18 F18        -8.5184    0.8840   66.7990 F       1  ZINC000793092912   -0.1500
     19 O19        -7.5228    0.6723   64.6972 O.3     1  ZINC000793092912   -0.2800
     20 C20        -8.5600    0.3133   63.8855 C.ar    1  ZINC000793092912    0.0500
     21 C21        -8.7105   -0.7431   63.0038 C.ar    1  ZINC000793092912   -0.0900
     22 C22       -11.4460   -4.2843   57.6920 C.3     1  ZINC000793092912    0.1100
     23 C23       -12.4180   -3.9505   56.5700 C.3     1  ZINC000793092912   -0.1200
     24 H24       -12.8512   -4.8182   56.0725 H       1  ZINC000793092912    0.1400
     25 C25       -12.2263   -2.7286   55.6846 C.3     1  ZINC000793092912    0.0000
     26 Cl26      -12.6651   -2.8840   53.9427 Cl      1  ZINC000793092912   -0.0800
     27 Cl27      -10.8255   -1.6511   56.0424 Cl      1  ZINC000793092912   -0.0900
     28 H28       -15.2671   -3.7677   56.7020 H       1  ZINC000793092912    0.0800
     29 H29       -15.3477   -2.0227   56.3605 H       1  ZINC000793092912    0.0700
     30 H30       -14.7445   -3.1457   55.1183 H       1  ZINC000793092912    0.0700
     31 H31       -12.6832   -0.9050   57.5295 H       1  ZINC000793092912    0.0900
     32 H32       -14.2095   -1.4903   58.2143 H       1  ZINC000793092912    0.1000
     33 H33       -12.1121   -1.5769   59.6968 H       1  ZINC000793092912    0.1100
     34 H34       -13.1373   -3.0223   59.6228 H       1  ZINC000793092912    0.0800
     35 H35       -10.2165   -2.8376   61.7178 H       1  ZINC000793092912    0.4300
     36 H36       -11.8360   -0.0748   61.8915 H       1  ZINC000793092912    0.1500
     37 H37       -11.5739    1.7966   63.4671 H       1  ZINC000793092912    0.1500
     38 H38        -7.9112   -1.4578   62.8756 H       1  ZINC000793092912    0.1600
     39 H39       -10.4715   -4.4940   57.2510 H       1  ZINC000793092912    0.1400
     40 H40       -11.7887   -5.1658   58.2339 H       1  ZINC000793092912    0.1000
@<TRIPOS>BOND
     1     1     2    1
     2     1    28    1
     3     1    29    1
     4     1    30    1
     5     2    23    1
     6     2    25    1
     7     2     3    1
     8     3     4    1
     9     3    31    1
    10     3    32    1
    11     4     5    1
    12     4    33    1
    13     4    34    1
    14     5     6   am
    15     5    22    1
    16     6     7    2
    17     6     8    1
    18     8     9    2
    19     8    10   am
    20    10    11    1
    21    10    35    1
    22    11    21   ar
    23    11    12   ar
    24    12    13   ar
    25    12    36    1
    26    13    14   ar
    27    13    37    1
    28    14    20   ar
    29    14    15    1
    30    15    16    1
    31    16    17    1
    32    16    18    1
    33    16    19    1
    34    19    20    1
    35    20    21   ar
    36    21    38    1
    37    22    23    1
    38    22    39    1
    39    22    40    1
    40    23    24    1
    41    23    25    1
    42    25    26    1
    43    25    27    1
@<TRIPOS>SUBSTRUCTURE
     1 ZINC000793092912        1 TEMP              0 ****  ****    0 ROOT


##########                                Name:    ZINC000277311370
##########                DOCK_Rotatable_Bonds:                   5
##########                         Heavy_Atoms:                  17
##########                    Molecular_Weight:             361.036
##########                DOCK_Rotatable_Bonds:                   5
##########                       Formal_Charge:        -7.45058e-08
##########                     HBond_Acceptors:                   4
##########                        HBond_Donors:                   1
##########                         Heavy_Atoms:                  17
##########                          Grid_Score:          -27.661465
##########                     Grid_vdw_energy:          -27.006123
##########                      Grid_es_energy:           -0.655341
##########           Internal_energy_repulsive:            8.444187

@<TRIPOS>MOLECULE
ZINC000277311370
 28 28 1 0 0
SMALL
USER_CHARGES


@<TRIPOS>ATOM
      1 C1         -9.8083   -0.8668   61.4796 C.3     1  ZINC000277311370   -0.1500
      2 C2         -9.8789   -1.6895   60.1915 C.3     1  ZINC000277311370   -0.1000
      3 C3         -9.6521   -3.1671   60.5170 C.3     1  ZINC000277311370   -0.1600
      4 C4        -11.2565   -1.5143   59.5494 C.3     1  ZINC000277311370    0.2500
      5 H5        -11.3972   -0.4700   59.2703 H       1  ZINC000277311370    0.1400
      6 C6        -12.2995   -1.9104   60.5098 C.1     1  ZINC000277311370    0.1900
      7 N7        -13.1043   -2.2160   61.2509 N.1     1  ZINC000277311370   -0.4100
      8 N8        -11.3486   -2.3559   58.3538 N.am    1  ZINC000277311370   -0.7000
      9 C9        -12.3032   -2.1165   57.4330 C.2     1  ZINC000277311370    0.5700
     10 O10       -13.0866   -1.2014   57.5937 O.2     1  ZINC000277311370   -0.4900
     11 C11       -12.3974   -2.9683   56.2252 C.ar    1  ZINC000277311370    0.1100
     12 N12       -11.7095   -2.6455   55.1366 N.ar    1  ZINC000277311370   -0.4300
     13 C13       -11.7649   -3.3756   54.0433 C.ar    1  ZINC000277311370    0.1300
     14 Br14      -10.7602   -2.8606   52.5263 Br      1  ZINC000277311370    0.0200
     15 C15       -12.5499   -4.5179   53.9884 C.ar    1  ZINC000277311370   -0.1100
     16 C16       -13.2843   -4.8915   55.1020 C.ar    1  ZINC000277311370   -0.0400
     17 C17       -13.2030   -4.1057   56.2426 C.ar    1  ZINC000277311370   -0.0900
     18 Br18      -14.1818   -4.5638   57.7944 Br      1  ZINC000277311370    0.0300
     19 H19        -8.8269   -0.9916   61.9371 H       1  ZINC000277311370    0.0700
     20 H20        -9.9699    0.1859   61.2477 H       1  ZINC000277311370    0.0700
     21 H21       -10.5779   -1.2086   62.1717 H       1  ZINC000277311370    0.0600
     22 H22        -9.1093   -1.3476   59.4994 H       1  ZINC000277311370    0.1000
     23 H23       -10.4216   -3.5090   61.2091 H       1  ZINC000277311370    0.0600
     24 H24        -9.7025   -3.7532   59.5993 H       1  ZINC000277311370    0.0600
     25 H25        -8.6706   -3.2919   60.9745 H       1  ZINC000277311370    0.0700
     26 H26       -10.7225   -3.0855   58.2248 H       1  ZINC000277311370    0.4200
     27 H27       -12.5884   -5.1101   53.0862 H       1  ZINC000277311370    0.1600
     28 H28       -13.9029   -5.7767   55.0840 H       1  ZINC000277311370    0.1700
@<TRIPOS>BOND
     1     1     2    1
     2     1    19    1
     3     1    20    1
     4     1    21    1
     5     2     3    1
     6     2     4    1
     7     2    22    1
     8     3    23    1
     9     3    24    1
    10     3    25    1
    11     4     5    1
    12     4     6    1
    13     4     8    1
    14     6     7    3
    15     8     9   am
    16     8    26    1
    17     9    10    2
    18     9    11    1
    19    11    17   ar
    20    11    12   ar
    21    12    13   ar
    22    13    14    1
    23    13    15   ar
    24    15    16   ar
    25    15    27    1
    26    16    17   ar
    27    16    28    1
    28    17    18    1
@<TRIPOS>SUBSTRUCTURE
     1 ZINC000277311370        1 TEMP              0 ****  ****    0 ROOT


##########                                Name:    ZINC000931749147
##########                DOCK_Rotatable_Bonds:                   5
##########                         Heavy_Atoms:                  25
##########                    Molecular_Weight:             354.397
##########                DOCK_Rotatable_Bonds:                   5
##########                       Formal_Charge:        -4.76837e-07
##########                     HBond_Acceptors:                   7
##########                        HBond_Donors:                   1
##########                         Heavy_Atoms:                  25
##########                          Grid_Score:          -27.644531
##########                     Grid_vdw_energy:          -28.010981
##########                      Grid_es_energy:            0.366450
##########           Internal_energy_repulsive:          149.755142

@<TRIPOS>MOLECULE
ZINC000931749147
 49 51 1 0 0
SMALL
USER_CHARGES


@<TRIPOS>ATOM
      1 C1        -12.9130    0.3961   61.7000 C.3     1  ZINC000931749147   -0.1100
      2 C2        -11.6067   -0.3429   61.8350 C.ar    1  ZINC000931749147   -0.1300
      3 C3        -11.3985   -1.5203   61.1299 C.ar    1  ZINC000931749147    0.1800
      4 N4        -12.4021   -2.0224   60.2921 N.am    1  ZINC000931749147   -0.6800
      5 C5        -12.2385   -1.9970   58.9545 C.2     1  ZINC000931749147    0.7100
      6 O6        -11.2195   -1.5382   58.4752 O.2     1  ZINC000931749147   -0.5500
      7 N7        -13.2044   -2.4801   58.1482 N.am    1  ZINC000931749147   -0.6200
      8 C8        -14.4459   -3.0403   58.7049 C.3     1  ZINC000931749147    0.0700
      9 C9        -14.6827   -4.4158   58.0710 C.3     1  ZINC000931749147    0.0500
     10 O10       -14.6230   -4.2947   56.6477 O.3     1  ZINC000931749147   -0.3700
     11 C11       -13.3533   -3.8662   56.1495 C.3     1  ZINC000931749147    0.0500
     12 C12       -13.0511   -2.4574   56.6848 C.3     1  ZINC000931749147    0.1300
     13 H13       -13.7475   -1.7416   56.2483 H       1  ZINC000931749147    0.0900
     14 C14       -11.6165   -2.0661   56.3243 C.3     1  ZINC000931749147   -0.1100
     15 C15       -11.4547   -2.0668   54.8029 C.3     1  ZINC000931749147   -0.1000
     16 C16       -11.0845   -3.4752   54.3277 C.3     1  ZINC000931749147   -0.1500
     17 C17       -11.0021   -3.4844   52.7991 C.3     1  ZINC000931749147    0.0600
     18 O18       -12.2517   -3.0565   52.2534 O.3     1  ZINC000931749147   -0.3800
     19 C19       -12.6268   -1.7288   52.6254 C.3     1  ZINC000931749147    0.0600
     20 C20       -12.7745   -1.6491   54.1471 C.3     1  ZINC000931749147   -0.1500
     21 C21       -10.1939   -2.1995   61.2559 C.ar    1  ZINC000931749147   -0.1200
     22 C22        -9.2044   -1.7035   62.0822 C.ar    1  ZINC000931749147   -0.1100
     23 C23        -9.4119   -0.5293   62.7853 C.ar    1  ZINC000931749147    0.0500
     24 F24        -8.4427   -0.0459   63.5928 F       1  ZINC000931749147   -0.1300
     25 C25       -10.6116    0.1544   62.6572 C.ar    1  ZINC000931749147    0.0900
     26 F26       -10.8127    1.3002   63.3441 F       1  ZINC000931749147   -0.1200
     27 H27       -12.8438    1.1095   60.8789 H       1  ZINC000931749147    0.0800
     28 H28       -13.7136   -0.3152   61.4969 H       1  ZINC000931749147    0.0700
     29 H29       -13.1267    0.9285   62.6269 H       1  ZINC000931749147    0.0800
     30 H30       -13.2150   -2.3884   60.6743 H       1  ZINC000931749147    0.4100
     31 H31       -14.3488   -3.1459   59.7854 H       1  ZINC000931749147    0.0800
     32 H32       -15.2823   -2.3807   58.4736 H       1  ZINC000931749147    0.0900
     33 H33       -13.9137   -5.1100   58.4098 H       1  ZINC000931749147    0.0600
     34 H34       -15.6645   -4.7876   58.3639 H       1  ZINC000931749147    0.1100
     35 H35       -12.5796   -4.5585   56.4813 H       1  ZINC000931749147    0.0600
     36 H36       -13.3789   -3.8426   55.0600 H       1  ZINC000931749147    0.1100
     37 H37       -11.4034   -1.0699   56.7119 H       1  ZINC000931749147    0.1100
     38 H38       -10.9230   -2.7830   56.7638 H       1  ZINC000931749147    0.0700
     39 H39       -10.6690   -1.3666   54.5194 H       1  ZINC000931749147    0.0700
     40 H40       -10.1189   -3.7587   54.7462 H       1  ZINC000931749147    0.0700
     41 H41       -11.8464   -4.1823   54.6557 H       1  ZINC000931749147    0.0700
     42 H42       -10.2124   -2.8071   52.4735 H       1  ZINC000931749147    0.0500
     43 H43       -10.7809   -4.4940   52.4529 H       1  ZINC000931749147    0.0900
     44 H44       -11.8584   -1.0286   52.2976 H       1  ZINC000931749147    0.0500
     45 H45       -13.5761   -1.4737   52.1542 H       1  ZINC000931749147    0.0900
     46 H46       -13.5705   -2.3194   54.4714 H       1  ZINC000931749147    0.0700
     47 H47       -13.0175   -0.6267   54.4364 H       1  ZINC000931749147    0.0700
     48 H48       -10.0309   -3.1159   60.7081 H       1  ZINC000931749147    0.1800
     49 H49        -8.2678   -2.2324   62.1799 H       1  ZINC000931749147    0.1500
@<TRIPOS>BOND
     1     1     2    1
     2     1    27    1
     3     1    28    1
     4     1    29    1
     5     2    25   ar
     6     2     3   ar
     7     3     4    1
     8     3    21   ar
     9     4     5   am
    10     4    30    1
    11     5     6    2
    12     5     7   am
    13     7    12    1
    14     7     8    1
    15     8     9    1
    16     8    31    1
    17     8    32    1
    18     9    10    1
    19     9    33    1
    20     9    34    1
    21    10    11    1
    22    11    12    1
    23    11    35    1
    24    11    36    1
    25    12    13    1
    26    12    14    1
    27    14    15    1
    28    14    37    1
    29    14    38    1
    30    15    20    1
    31    15    16    1
    32    15    39    1
    33    16    17    1
    34    16    40    1
    35    16    41    1
    36    17    18    1
    37    17    42    1
    38    17    43    1
    39    18    19    1
    40    19    20    1
    41    19    44    1
    42    19    45    1
    43    20    46    1
    44    20    47    1
    45    21    22   ar
    46    21    48    1
    47    22    23   ar
    48    22    49    1
    49    23    24    1
    50    23    25   ar
    51    25    26    1
@<TRIPOS>SUBSTRUCTURE
     1 ZINC000931749147        1 TEMP              0 ****  ****    0 ROOT


##########                                Name:    ZINC000828026236
##########                DOCK_Rotatable_Bonds:                   1
##########                         Heavy_Atoms:                  19
##########                    Molecular_Weight:             383.045
##########                DOCK_Rotatable_Bonds:                   1
##########                       Formal_Charge:                   0
##########                     HBond_Acceptors:                   5
##########                        HBond_Donors:                   0
##########                         Heavy_Atoms:                  19
##########                          Grid_Score:          -27.620323
##########                     Grid_vdw_energy:          -26.750835
##########                      Grid_es_energy:           -0.869487
##########           Internal_energy_repulsive:            6.206887

@<TRIPOS>MOLECULE
ZINC000828026236
 28 30 1 0 0
SMALL
USER_CHARGES


@<TRIPOS>ATOM
      1 N1         -8.7501   -4.1071   60.0993 N.1     1  ZINC000828026236   -0.3800
      2 C2         -9.1988   -3.2202   60.6493 C.1     1  ZINC000828026236    0.2600
      3 C3         -9.7645   -2.1022   61.3425 C.ar    1  ZINC000828026236   -0.0500
      4 C4         -9.0272   -1.4212   62.3175 C.ar    1  ZINC000828026236    0.0100
      5 C5         -9.6199   -0.3465   62.9591 C.ar    1  ZINC000828026236   -0.1600
      6 Br6        -8.6721    0.6125   64.2850 Br      1  ZINC000828026236   -0.0100
      7 C7        -10.9107    0.0206   62.6220 C.ar    1  ZINC000828026236    0.1800
      8 N8        -11.5889   -0.6349   61.6995 N.ar    1  ZINC000828026236   -0.5000
      9 C9        -11.0686   -1.6650   61.0518 C.ar    1  ZINC000828026236    0.3600
     10 N10       -11.8172   -2.3234   60.0912 N.3     1  ZINC000828026236   -0.4900
     11 C11       -11.3173   -2.0290   58.7408 C.3     1  ZINC000828026236    0.0500
     12 C12       -11.9032   -3.0357   57.7425 C.3     1  ZINC000828026236    0.1100
     13 N13       -13.3527   -3.0948   57.9484 N.pl3   1  ZINC000828026236   -0.4400
     14 C14       -14.3088   -3.6000   57.1229 C.2     1  ZINC000828026236   -0.0300
     15 Br15      -14.0340   -4.3951   55.4294 Br      1  ZINC000828026236    0.0200
     16 C16       -15.4923   -3.4232   57.7485 C.2     1  ZINC000828026236    0.0300
     17 N17       -15.2554   -2.8239   58.9279 N.2     1  ZINC000828026236   -0.4700
     18 C18       -13.9786   -2.6247   59.0571 C.2     1  ZINC000828026236    0.2300
     19 C19       -13.2465   -1.9885   60.2147 C.3     1  ZINC000828026236    0.1500
     20 H20        -8.0209   -1.7265   62.5640 H       1  ZINC000828026236    0.1600
     21 H21       -11.3715    0.8587   63.1234 H       1  ZINC000828026236    0.1800
     22 H22       -11.6153   -1.0200   58.4557 H       1  ZINC000828026236    0.0700
     23 H23       -10.2297   -2.1013   58.7328 H       1  ZINC000828026236    0.1100
     24 H24       -11.6895   -2.7107   56.7243 H       1  ZINC000828026236    0.1100
     25 H25       -11.4671   -4.0198   57.9140 H       1  ZINC000828026236    0.1000
     26 H26       -16.4606   -3.7126   57.3676 H       1  ZINC000828026236    0.1800
     27 H27       -13.6359   -2.3781   61.1553 H       1  ZINC000828026236    0.1200
     28 H28       -13.3753   -0.9067   60.1820 H       1  ZINC000828026236    0.1000
@<TRIPOS>BOND
     1     1     2    3
     2     2     3    1
     3     3     9   ar
     4     3     4   ar
     5     4     5   ar
     6     4    20    1
     7     5     6    1
     8     5     7   ar
     9     7     8   ar
    10     7    21    1
    11     8     9   ar
    12     9    10    1
    13    10    19    1
    14    10    11    1
    15    11    12    1
    16    11    22    1
    17    11    23    1
    18    12    13    1
    19    12    24    1
    20    12    25    1
    21    13    18    1
    22    13    14    1
    23    14    15    1
    24    14    16    2
    25    16    17    1
    26    16    26    1
    27    17    18    2
    28    18    19    1
    29    19    27    1
    30    19    28    1
@<TRIPOS>SUBSTRUCTURE
     1 ZINC000828026236        1 TEMP              0 ****  ****    0 ROOT


##########                                Name:    ZINC001023407238
##########                DOCK_Rotatable_Bonds:                   7
##########                         Heavy_Atoms:                  25
##########                    Molecular_Weight:             349.387
##########                DOCK_Rotatable_Bonds:                   7
##########                       Formal_Charge:          -0.0300008
##########                     HBond_Acceptors:                   8
##########                        HBond_Donors:                   2
##########                         Heavy_Atoms:                  25
##########                          Grid_Score:          -27.616022
##########                     Grid_vdw_energy:          -25.387329
##########                      Grid_es_energy:           -2.228693
##########           Internal_energy_repulsive:           20.177753

@<TRIPOS>MOLECULE
ZINC001023407238
 48 50 1 0 0
SMALL
USER_CHARGES


@<TRIPOS>ATOM
      1 C1        -15.0222   -1.2422   64.5464 C.3     1  ZINC001023407238   -0.0900
      2 C2        -15.3670   -0.0298   63.7205 C.2     1  ZINC001023407238   -0.1100
      3 C3        -14.6826    1.1668   63.6966 C.2     1  ZINC001023407238   -0.0500
      4 C4        -13.4818    1.4945   64.4727 C.2     1  ZINC001023407238    0.6100
      5 O5        -13.5829    1.8247   65.6396 O.2     1  ZINC001023407238   -0.5100
      6 N6        -12.2666    1.4299   63.8935 N.am    1  ZINC001023407238   -0.6100
      7 C7        -10.9866    1.7300   64.5515 C.3     1  ZINC001023407238    0.0800
      8 C8         -9.8706    1.4940   63.5121 C.3     1  ZINC001023407238    0.0900
      9 H9         -9.5897    2.4297   63.0287 H       1  ZINC001023407238    0.0800
     10 O10        -8.7331    0.8808   64.1220 O.3     1  ZINC001023407238   -0.5500
     11 C11       -10.5398    0.5306   62.4964 C.3     1  ZINC001023407238    0.1400
     12 H12       -10.4896   -0.5009   62.8450 H       1  ZINC001023407238    0.1200
     13 N13        -9.9341    0.6636   61.1691 N.am    1  ZINC001023407238   -0.7200
     14 C14       -10.4720    0.0181   60.1153 C.2     1  ZINC001023407238    0.5200
     15 O15       -11.4566   -0.6739   60.2661 O.2     1  ZINC001023407238   -0.5300
     16 C16        -9.8501    0.1563   58.7495 C.3     1  ZINC001023407238   -0.1300
     17 C17        -9.4608   -1.2269   58.2242 C.3     1  ZINC001023407238   -0.1100
     18 H18        -8.6821   -1.1471   57.4654 H       1  ZINC001023407238    0.1100
     19 C19        -9.0105   -2.1485   59.3805 C.3     1  ZINC001023407238    0.0600
     20 O20        -9.4816   -3.4734   58.9943 O.3     1  ZINC001023407238   -0.3500
     21 C21       -10.6008   -3.3651   58.2642 C.2     1  ZINC001023407238    0.4800
     22 O22       -11.4120   -4.2456   58.1017 O.2     1  ZINC001023407238   -0.4600
     23 C23       -10.6951   -1.9723   57.6696 C.3     1  ZINC001023407238   -0.1800
     24 C24       -12.0002    1.0406   62.4967 C.3     1  ZINC001023407238    0.1000
     25 N25       -15.3311    1.9979   62.8114 N.pl3   1  ZINC001023407238   -0.4200
     26 C26       -14.9370    3.3700   62.4822 C.3     1  ZINC001023407238    0.0700
     27 C27       -16.3949    1.3356   62.2952 C.2     1  ZINC001023407238    0.0100
     28 C28       -16.4376    0.0915   62.8293 C.2     1  ZINC001023407238   -0.2000
     29 H29       -14.3451   -1.8847   63.9836 H       1  ZINC001023407238    0.0600
     30 H30       -14.5390   -0.9265   65.4711 H       1  ZINC001023407238    0.0600
     31 H31       -15.9332   -1.7924   64.7820 H       1  ZINC001023407238    0.0700
     32 H32       -10.9735    2.7692   64.8800 H       1  ZINC001023407238    0.0800
     33 H33       -10.8443    1.0673   65.4051 H       1  ZINC001023407238    0.0800
     34 H34        -7.8910    1.1153   63.7087 H       1  ZINC001023407238    0.3900
     35 H35        -9.1461    1.2161   61.0487 H       1  ZINC001023407238    0.4100
     36 H36       -10.5669    0.6151   58.0686 H       1  ZINC001023407238    0.1000
     37 H37        -8.9608    0.7829   58.8170 H       1  ZINC001023407238    0.1100
     38 H38        -7.9243   -2.1421   59.4713 H       1  ZINC001023407238    0.1200
     39 H39        -9.4735   -1.8379   60.3171 H       1  ZINC001023407238    0.0800
     40 H40       -11.6113   -1.4812   57.9975 H       1  ZINC001023407238    0.1100
     41 H41       -10.6584   -2.0211   56.5813 H       1  ZINC001023407238    0.1200
     42 H42       -12.6792    0.2470   62.1844 H       1  ZINC001023407238    0.0900
     43 H43       -12.1001    1.9060   61.8416 H       1  ZINC001023407238    0.0800
     44 H44       -14.3180    3.3648   61.5850 H       1  ZINC001023407238    0.0800
     45 H45       -15.8286    3.9714   62.3049 H       1  ZINC001023407238    0.0900
     46 H46       -14.3714    3.7944   63.3115 H       1  ZINC001023407238    0.0800
     47 H47       -17.0924    1.7334   61.5730 H       1  ZINC001023407238    0.1700
     48 H48       -17.1725   -0.6693   62.6110 H       1  ZINC001023407238    0.1400
@<TRIPOS>BOND
     1     1     2    1
     2     1    29    1
     3     1    30    1
     4     1    31    1
     5     2    28    1
     6     2     3    2
     7     3     4    1
     8     3    25    1
     9     4     5    2
    10     4     6   am
    11     6    24    1
    12     6     7    1
    13     7     8    1
    14     7    32    1
    15     7    33    1
    16     8     9    1
    17     8    10    1
    18     8    11    1
    19    10    34    1
    20    11    12    1
    21    11    13    1
    22    11    24    1
    23    13    14   am
    24    13    35    1
    25    14    15    2
    26    14    16    1
    27    16    17    1
    28    16    36    1
    29    16    37    1
    30    17    18    1
    31    17    23    1
    32    17    19    1
    33    19    20    1
    34    19    38    1
    35    19    39    1
    36    20    21    1
    37    21    22    2
    38    21    23    1
    39    23    40    1
    40    23    41    1
    41    24    42    1
    42    24    43    1
    43    25    26    1
    44    25    27    1
    45    26    44    1
    46    26    45    1
    47    26    46    1
    48    27    28    2
    49    27    47    1
    50    28    48    1
@<TRIPOS>SUBSTRUCTURE
     1 ZINC001023407238        1 TEMP              0 ****  ****    0 ROOT


##########                                Name:    ZINC000004040798
##########                DOCK_Rotatable_Bonds:                   3
##########                         Heavy_Atoms:                  22
##########                    Molecular_Weight:             361.151
##########                DOCK_Rotatable_Bonds:                   3
##########                       Formal_Charge:           0.0200003
##########                     HBond_Acceptors:                   6
##########                        HBond_Donors:                   1
##########                         Heavy_Atoms:                  22
##########                          Grid_Score:          -27.615097
##########                     Grid_vdw_energy:          -27.601244
##########                      Grid_es_energy:           -0.013853
##########           Internal_energy_repulsive:            4.087834

@<TRIPOS>MOLECULE
ZINC000004040798
 31 33 1 0 0
SMALL
USER_CHARGES


@<TRIPOS>ATOM
      1 O1        -11.0263   -2.0466   53.3576 O.2     1  ZINC000004040798   -0.4800
      2 C2        -12.2233   -2.2010   53.5118 C.2     1  ZINC000004040798    0.6100
      3 N3        -12.7258   -2.3802   54.7495 N.am    1  ZINC000004040798   -0.6600
      4 C4        -11.8707   -2.3942   55.8561 C.ar    1  ZINC000004040798    0.2300
      5 C5        -10.9998   -1.3354   56.0761 C.ar    1  ZINC000004040798   -0.1300
      6 C6        -10.1563   -1.3523   57.1699 C.ar    1  ZINC000004040798   -0.0100
      7 C7        -10.1782   -2.4220   58.0456 C.ar    1  ZINC000004040798   -0.0600
      8 N8         -9.2728   -2.4362   59.2166 N.pl3   1  ZINC000004040798    0.0300
      9 O9         -8.5096   -1.5064   59.4077 O.2     1  ZINC000004040798   -0.1500
     10 O10        -9.2909   -3.3778   59.9890 O.2     1  ZINC000004040798   -0.1500
     11 C11       -11.0444   -3.4784   57.8305 C.ar    1  ZINC000004040798    0.0000
     12 C12       -11.8945   -3.4656   56.7414 C.ar    1  ZINC000004040798   -0.1400
     13 Br13      -13.0788   -4.9103   56.4476 Br      1  ZINC000004040798    0.0000
     14 C14       -13.1217   -2.1863   52.3492 C.2     1  ZINC000004040798   -0.0500
     15 C15       -14.4363   -2.5273   52.3728 C.2     1  ZINC000004040798   -0.0800
     16 C16       -14.9220   -2.3635   51.0031 C.ar    1  ZINC000004040798   -0.1500
     17 C17       -16.1580   -2.5485   50.3799 C.ar    1  ZINC000004040798   -0.0500
     18 C18       -16.2859   -2.2999   49.0421 C.ar    1  ZINC000004040798   -0.1400
     19 C19       -15.1962   -1.8658   48.3001 C.ar    1  ZINC000004040798   -0.0700
     20 C20       -13.9679   -1.6771   48.8964 C.ar    1  ZINC000004040798   -0.1100
     21 C21       -13.8136   -1.9229   50.2556 C.ar    1  ZINC000004040798    0.0800
     22 O22       -12.7667   -1.8262   51.0980 O.3     1  ZINC000004040798   -0.1900
     23 H23       -13.6805   -2.4992   54.8728 H       1  ZINC000004040798    0.4300
     24 H24       -10.9816   -0.4995   55.3923 H       1  ZINC000004040798    0.1800
     25 H25        -9.4785   -0.5291   57.3411 H       1  ZINC000004040798    0.1700
     26 H26       -11.0591   -4.3125   58.5164 H       1  ZINC000004040798    0.1700
     27 H27       -15.0071   -2.8539   53.2296 H       1  ZINC000004040798    0.1800
     28 H28       -17.0090   -2.8867   50.9524 H       1  ZINC000004040798    0.1400
     29 H29       -17.2412   -2.4426   48.5590 H       1  ZINC000004040798    0.1400
     30 H30       -15.3120   -1.6740   47.2436 H       1  ZINC000004040798    0.1400
     31 H31       -13.1273   -1.3387   48.3088 H       1  ZINC000004040798    0.1400
@<TRIPOS>BOND
     1     1     2    2
     2     2     3   am
     3     2    14    1
     4     3     4    1
     5     3    23    1
     6     4    12   ar
     7     4     5   ar
     8     5     6   ar
     9     5    24    1
    10     6     7   ar
    11     6    25    1
    12     7     8    1
    13     7    11   ar
    14     8     9    2
    15     8    10    2
    16    11    12   ar
    17    11    26    1
    18    12    13    1
    19    14    22    1
    20    14    15    2
    21    15    16    1
    22    15    27    1
    23    16    21   ar
    24    16    17   ar
    25    17    18   ar
    26    17    28    1
    27    18    19   ar
    28    18    29    1
    29    19    20   ar
    30    19    30    1
    31    20    21   ar
    32    20    31    1
    33    21    22    1
@<TRIPOS>SUBSTRUCTURE
     1 ZINC000004040798        1 TEMP              0 ****  ****    0 ROOT


##########                                Name:    ZINC000154446008
##########                DOCK_Rotatable_Bonds:                   5
##########                         Heavy_Atoms:                  24
##########                    Molecular_Weight:              349.41
##########                DOCK_Rotatable_Bonds:                   5
##########                       Formal_Charge:          -0.0199999
##########                     HBond_Acceptors:                   8
##########                        HBond_Donors:                   0
##########                         Heavy_Atoms:                  24
##########                          Grid_Score:          -27.567104
##########                     Grid_vdw_energy:          -26.538086
##########                      Grid_es_energy:           -1.029019
##########           Internal_energy_repulsive:           13.238577

@<TRIPOS>MOLECULE
ZINC000154446008
 43 45 1 0 0
SMALL
USER_CHARGES


@<TRIPOS>ATOM
      1 O1         -8.9014   -1.0357   62.7435 O.2     1  ZINC000154446008   -0.5000
      2 C2         -9.8159   -0.7720   61.9850 C.2     1  ZINC000154446008    0.5900
      3 C3        -10.7794    0.2758   62.3350 C.2     1  ZINC000154446008   -0.2300
      4 C4        -10.5930    1.6172   62.1529 C.2     1  ZINC000154446008   -0.0600
      5 C5        -11.6607    2.3760   62.5699 C.2     1  ZINC000154446008   -0.0500
      6 C6        -12.6868    1.6823   63.0763 C.2     1  ZINC000154446008   -0.2100
      7 N7        -13.9381    2.2870   63.5861 N.pl3   1  ZINC000154446008    0.0500
      8 O8        -14.6200    1.6842   64.3956 O.2     1  ZINC000154446008   -0.1300
      9 O9        -14.2858    3.3872   63.1960 O.2     1  ZINC000154446008   -0.1500
     10 S10       -12.3635    0.0072   63.0493 S.3     1  ZINC000154446008    0.3500
     11 N11        -9.9394   -1.4395   60.8206 N.am    1  ZINC000154446008   -0.6100
     12 C12        -8.9842   -2.4965   60.4596 C.3     1  ZINC000154446008    0.0800
     13 C13        -9.7652   -3.7833   60.1660 C.3     1  ZINC000154446008    0.0900
     14 N14       -10.8577   -3.4676   59.2350 N.am    1  ZINC000154446008   -0.6100
     15 C15       -10.9816   -4.1358   58.0710 C.2     1  ZINC000154446008    0.5500
     16 O16       -10.1854   -5.0088   57.7833 O.2     1  ZINC000154446008   -0.5300
     17 C17       -12.0801   -3.8091   57.1488 C.2     1  ZINC000154446008   -0.1500
     18 C18       -13.2164   -4.4579   57.2840 C.2     1  ZINC000154446008   -0.1100
     19 C19       -14.4151   -4.2335   56.4090 C.3     1  ZINC000154446008   -0.1000
     20 C20       -14.2818   -2.9036   55.6640 C.3     1  ZINC000154446008   -0.1200
     21 C21       -12.8972   -2.8505   55.0068 C.3     1  ZINC000154446008   -0.1200
     22 C22       -11.8416   -2.7504   56.1119 C.3     1  ZINC000154446008   -0.0700
     23 C23       -11.8128   -2.4106   59.5961 C.3     1  ZINC000154446008    0.1000
     24 C24       -11.0351   -1.1276   59.8922 C.3     1  ZINC000154446008    0.1000
     25 H25        -9.6961    2.0391   61.7240 H       1  ZINC000154446008    0.1800
     26 H26       -11.6704    3.4534   62.4948 H       1  ZINC000154446008    0.1800
     27 H27        -8.4255   -2.1973   59.5727 H       1  ZINC000154446008    0.0900
     28 H28        -8.2966   -2.6667   61.2880 H       1  ZINC000154446008    0.0900
     29 H29        -9.1007   -4.5196   59.7139 H       1  ZINC000154446008    0.1100
     30 H30       -10.1782   -4.1802   61.0934 H       1  ZINC000154446008    0.0800
     31 H31       -13.2910   -5.1950   58.0698 H       1  ZINC000154446008    0.1100
     32 H32       -14.4924   -5.0460   55.6867 H       1  ZINC000154446008    0.0900
     33 H33       -15.3139   -4.2138   57.0255 H       1  ZINC000154446008    0.0800
     34 H34       -15.0539   -2.8342   54.8978 H       1  ZINC000154446008    0.0700
     35 H35       -14.3851   -2.0777   56.3678 H       1  ZINC000154446008    0.0700
     36 H36       -12.7346   -3.7555   54.4216 H       1  ZINC000154446008    0.0700
     37 H37       -12.8324   -1.9758   54.3595 H       1  ZINC000154446008    0.0700
     38 H38       -11.8952   -1.7650   56.5747 H       1  ZINC000154446008    0.0800
     39 H39       -10.8510   -2.8907   55.6793 H       1  ZINC000154446008    0.0700
     40 H40       -12.5004   -2.2403   58.7677 H       1  ZINC000154446008    0.1100
     41 H41       -12.3715   -2.7098   60.4829 H       1  ZINC000154446008    0.0800
     42 H42       -11.7007   -0.3923   60.3441 H       1  ZINC000154446008    0.1100
     43 H43       -10.6206   -0.7291   58.9662 H       1  ZINC000154446008    0.0800
@<TRIPOS>BOND
     1     1     2    2
     2     2     3    1
     3     2    11   am
     4     3    10    1
     5     3     4    2
     6     4     5    1
     7     4    25    1
     8     5     6    2
     9     5    26    1
    10     6     7    1
    11     6    10    1
    12     7     8    2
    13     7     9    2
    14    11    24    1
    15    11    12    1
    16    12    13    1
    17    12    27    1
    18    12    28    1
    19    13    14    1
    20    13    29    1
    21    13    30    1
    22    14    15   am
    23    14    23    1
    24    15    16    2
    25    15    17    1
    26    17    22    1
    27    17    18    2
    28    18    19    1
    29    18    31    1
    30    19    20    1
    31    19    32    1
    32    19    33    1
    33    20    21    1
    34    20    34    1
    35    20    35    1
    36    21    22    1
    37    21    36    1
    38    21    37    1
    39    22    38    1
    40    22    39    1
    41    23    24    1
    42    23    40    1
    43    23    41    1
    44    24    42    1
    45    24    43    1
@<TRIPOS>SUBSTRUCTURE
     1 ZINC000154446008        1 TEMP              0 ****  ****    0 ROOT


##########                                Name:    ZINC000534890536
##########                DOCK_Rotatable_Bonds:                   6
##########                         Heavy_Atoms:                  30
##########                    Molecular_Weight:             411.476
##########                DOCK_Rotatable_Bonds:                   6
##########                       Formal_Charge:          0.00999957
##########                     HBond_Acceptors:                   7
##########                        HBond_Donors:                   1
##########                         Heavy_Atoms:                  30
##########                          Grid_Score:          -27.566586
##########                     Grid_vdw_energy:          -27.379000
##########                      Grid_es_energy:           -0.187585
##########           Internal_energy_repulsive:           16.047586

@<TRIPOS>MOLECULE
ZINC000534890536
 56 59 1 0 0
SMALL
USER_CHARGES


@<TRIPOS>ATOM
      1 C1         -7.3691    0.0576   67.3750 C.3     1  ZINC000534890536    0.0300
      2 O2         -7.9871    1.2297   66.8399 O.3     1  ZINC000534890536   -0.3200
      3 C3         -8.5373    1.1266   65.6016 C.ar    1  ZINC000534890536    0.1300
      4 C4         -8.4894   -0.0799   64.9184 C.ar    1  ZINC000534890536   -0.2100
      5 C5         -9.0497   -0.1823   63.6599 C.ar    1  ZINC000534890536   -0.0700
      6 C6         -9.6576    0.9163   63.0809 C.ar    1  ZINC000534890536   -0.1100
      7 C7        -10.2676    0.8019   61.7077 C.3     1  ZINC000534890536   -0.0600
      8 H8         -9.5256    1.0024   60.9349 H       1  ZINC000534890536    0.0900
      9 C9        -11.4910    1.7452   61.5622 C.3     1  ZINC000534890536   -0.1200
     10 C10       -12.3420    1.0434   60.4829 C.3     1  ZINC000534890536    0.1000
     11 N11       -11.9504   -0.3736   60.4713 N.am    1  ZINC000534890536   -0.6400
     12 C12       -12.4495   -1.3198   59.6514 C.2     1  ZINC000534890536    0.7300
     13 O13       -12.0506   -2.4656   59.7314 O.2     1  ZINC000534890536   -0.5700
     14 N14       -13.3908   -0.9959   58.7428 N.am    1  ZINC000534890536   -0.7300
     15 C15       -13.9320   -2.0241   57.8505 C.3     1  ZINC000534890536    0.1600
     16 H16       -13.7770   -3.0072   58.2947 H       1  ZINC000534890536    0.1200
     17 C17       -15.4310   -1.7867   57.6514 C.3     1  ZINC000534890536   -0.1300
     18 C18       -15.9180   -2.6911   56.5129 C.3     1  ZINC000534890536   -0.1300
     19 C19       -15.2899   -2.2115   55.2038 C.3     1  ZINC000534890536    0.1100
     20 N20       -13.8474   -2.0660   55.3534 N.am    1  ZINC000534890536   -0.5600
     21 C21       -13.0666   -2.0360   54.1911 C.ar    1  ZINC000534890536    0.1000
     22 C22       -13.0837   -0.9172   53.3704 C.ar    1  ZINC000534890536   -0.0800
     23 C23       -12.3120   -0.8901   52.2245 C.ar    1  ZINC000534890536   -0.1200
     24 C24       -11.5233   -1.9761   51.8936 C.ar    1  ZINC000534890536   -0.0800
     25 C25       -11.5029   -3.0938   52.7082 C.ar    1  ZINC000534890536   -0.1500
     26 C26       -12.2681   -3.1255   53.8594 C.ar    1  ZINC000534890536    0.1100
     27 F27       -12.2480   -4.2169   54.6554 F       1  ZINC000534890536   -0.1300
     28 C28       -13.2258   -1.9578   56.5268 C.2     1  ZINC000534890536    0.5000
     29 O29       -12.0232   -1.7995   56.5271 O.2     1  ZINC000534890536   -0.5100
     30 C30       -10.9198   -0.5884   61.5039 C.3     1  ZINC000534890536    0.1300
     31 C31        -9.7070    2.1198   63.7600 C.ar    1  ZINC000534890536   -0.0700
     32 C32        -9.1527    2.2260   65.0209 C.ar    1  ZINC000534890536   -0.1500
     33 H33        -8.1072   -0.7412   67.4480 H       1  ZINC000534890536    0.0600
     34 H34        -6.5572   -0.2567   66.7191 H       1  ZINC000534890536    0.0600
     35 H35        -6.9715    0.2767   68.3660 H       1  ZINC000534890536    0.1000
     36 H36        -8.0142   -0.9382   65.3698 H       1  ZINC000534890536    0.1300
     37 H37        -9.0128   -1.1213   63.1275 H       1  ZINC000534890536    0.1300
     38 H38       -12.0393    1.8132   62.5017 H       1  ZINC000534890536    0.0800
     39 H39       -11.1781    2.7332   61.2245 H       1  ZINC000534890536    0.0900
     40 H40       -13.4001    1.1336   60.7286 H       1  ZINC000534890536    0.0700
     41 H41       -12.1463    1.4901   59.5081 H       1  ZINC000534890536    0.0700
     42 H42       -13.7100   -0.0821   58.6798 H       1  ZINC000534890536    0.4000
     43 H43       -15.9664   -2.0311   58.5689 H       1  ZINC000534890536    0.0900
     44 H44       -15.6059   -0.7427   57.3911 H       1  ZINC000534890536    0.0800
     45 H45       -15.6156   -3.7199   56.7083 H       1  ZINC000534890536    0.0800
     46 H46       -17.0041   -2.6343   56.4398 H       1  ZINC000534890536    0.1000
     47 H47       -15.4991   -2.9363   54.4169 H       1  ZINC000534890536    0.0800
     48 H48       -15.7223   -1.2498   54.9278 H       1  ZINC000534890536    0.0700
     49 H49       -13.6998   -0.0681   53.6271 H       1  ZINC000534890536    0.1300
     50 H50       -12.3254   -0.0192   51.5859 H       1  ZINC000534890536    0.1300
     51 H51       -10.9220   -1.9520   50.9969 H       1  ZINC000534890536    0.1400
     52 H52       -10.8856   -3.9407   52.4470 H       1  ZINC000534890536    0.1400
     53 H53       -10.1791   -1.3088   61.1566 H       1  ZINC000534890536    0.0800
     54 H54       -11.3779   -0.9314   62.4316 H       1  ZINC000534890536    0.0700
     55 H55       -10.1826    2.9764   63.3058 H       1  ZINC000534890536    0.1300
     56 H56        -9.1915    3.1661   65.5509 H       1  ZINC000534890536    0.1300
@<TRIPOS>BOND
     1     1     2    1
     2     1    33    1
     3     1    34    1
     4     1    35    1
     5     2     3    1
     6     3    32   ar
     7     3     4   ar
     8     4     5   ar
     9     4    36    1
    10     5     6   ar
    11     5    37    1
    12     6     7    1
    13     6    31   ar
    14     7     8    1
    15     7    30    1
    16     7     9    1
    17     9    10    1
    18     9    38    1
    19     9    39    1
    20    10    11    1
    21    10    40    1
    22    10    41    1
    23    11    12   am
    24    11    30    1
    25    12    13    2
    26    12    14   am
    27    14    15    1
    28    14    42    1
    29    15    16    1
    30    15    28    1
    31    15    17    1
    32    17    18    1
    33    17    43    1
    34    17    44    1
    35    18    19    1
    36    18    45    1
    37    18    46    1
    38    19    20    1
    39    19    47    1
    40    19    48    1
    41    20    21    1
    42    20    28   am
    43    21    26   ar
    44    21    22   ar
    45    22    23   ar
    46    22    49    1
    47    23    24   ar
    48    23    50    1
    49    24    25   ar
    50    24    51    1
    51    25    26   ar
    52    25    52    1
    53    26    27    1
    54    28    29    2
    55    30    53    1
    56    30    54    1
    57    31    32   ar
    58    31    55    1
    59    32    56    1
@<TRIPOS>SUBSTRUCTURE
     1 ZINC000534890536        1 TEMP              0 ****  ****    0 ROOT


##########                                Name:    ZINC001173835973
##########                DOCK_Rotatable_Bonds:                   4
##########                         Heavy_Atoms:                  26
##########                    Molecular_Weight:             343.388
##########                DOCK_Rotatable_Bonds:                   4
##########                       Formal_Charge:           -0.010001
##########                     HBond_Acceptors:                   6
##########                        HBond_Donors:                   4
##########                         Heavy_Atoms:                  26
##########                          Grid_Score:          -27.531572
##########                     Grid_vdw_energy:          -28.015469
##########                      Grid_es_energy:            0.483895
##########           Internal_energy_repulsive:            7.250009

@<TRIPOS>MOLECULE
ZINC001173835973
 43 46 1 0 0
SMALL
USER_CHARGES


@<TRIPOS>ATOM
      1 C1         -9.2678   -2.2656   60.2203 C.3     1  ZINC001173835973   -0.1700
      2 C2        -10.2910   -2.5432   59.1493 C.2     1  ZINC001173835973    0.5100
      3 O3        -11.4705   -2.5729   59.4304 O.2     1  ZINC001173835973   -0.5200
      4 N4         -9.8955   -2.7582   57.8789 N.am    1  ZINC001173835973   -0.6800
      5 C5        -10.8454   -3.0159   56.8844 C.ar    1  ZINC001173835973    0.1800
      6 C6        -11.6921   -4.1112   56.9988 C.ar    1  ZINC001173835973   -0.1900
      7 C7        -12.6308   -4.3667   56.0172 C.ar    1  ZINC001173835973   -0.0600
      8 C8        -12.7311   -3.5342   54.9197 C.ar    1  ZINC001173835973   -0.1900
      9 C9        -11.8869   -2.4362   54.7991 C.ar    1  ZINC001173835973    0.2200
     10 N10       -11.9885   -1.5950   53.6894 N.pl3   1  ZINC001173835973   -0.6900
     11 C11       -10.9638   -0.6848   53.4049 C.ar    1  ZINC001173835973    0.0400
     12 C12        -9.8479   -1.1070   52.7441 C.ar    1  ZINC001173835973    0.2400
     13 N13        -9.7362   -2.4469   52.3557 N.pl3   1  ZINC001173835973   -0.8600
     14 C14        -8.7701   -0.1726   52.4387 C.ar    1  ZINC001173835973   -0.1100
     15 C15        -7.6189   -0.6013   51.7581 C.ar    1  ZINC001173835973   -0.0600
     16 C16        -6.6397    0.3188   51.4977 C.ar    1  ZINC001173835973   -0.1700
     17 C17        -6.8035    1.6369   51.9066 C.ar    1  ZINC001173835973    0.1200
     18 N18        -7.8835    2.0299   52.5428 N.ar    1  ZINC001173835973   -0.4400
     19 C19        -8.8704    1.1823   52.8248 C.ar    1  ZINC001173835973    0.1900
     20 C20       -10.0711    1.6367   53.5359 C.ar    1  ZINC001173835973    0.1300
     21 N21       -10.1995    2.9063   53.9146 N.ar    1  ZINC001173835973   -0.4400
     22 C22       -11.2687    3.3266   54.5516 C.ar    1  ZINC001173835973    0.1000
     23 C23       -12.3159    2.4670   54.8604 C.ar    1  ZINC001173835973   -0.1500
     24 C24       -12.2441    1.1490   54.4977 C.ar    1  ZINC001173835973   -0.0700
     25 C25       -11.1001    0.7095   53.8122 C.ar    1  ZINC001173835973   -0.0400
     26 C26       -10.9466   -2.1742   55.7860 C.ar    1  ZINC001173835973   -0.1900
     27 H27        -9.7724   -2.1186   61.1753 H       1  ZINC001173835973    0.1000
     28 H28        -8.5838   -3.1107   60.2971 H       1  ZINC001173835973    0.0900
     29 H29        -8.7075   -1.3668   59.9633 H       1  ZINC001173835973    0.0900
     30 H30        -8.9522   -2.7342   57.6540 H       1  ZINC001173835973    0.4100
     31 H31       -11.6164   -4.7642   57.8556 H       1  ZINC001173835973    0.1200
     32 H32       -13.2872   -5.2195   56.1083 H       1  ZINC001173835973    0.1200
     33 H33       -13.4656   -3.7366   54.1544 H       1  ZINC001173835973    0.1200
     34 H34       -12.7692   -1.6411   53.1155 H       1  ZINC001173835973    0.4000
     35 H35       -10.4828   -3.0528   52.4838 H       1  ZINC001173835973    0.4100
     36 H36        -8.9122   -2.7695   51.9584 H       1  ZINC001173835973    0.4000
     37 H37        -7.5092   -1.6302   51.4484 H       1  ZINC001173835973    0.1400
     38 H38        -5.7417    0.0211   50.9764 H       1  ZINC001173835973    0.1400
     39 H39        -6.0246    2.3549   51.6965 H       1  ZINC001173835973    0.1700
     40 H40       -11.3352    4.3647   54.8425 H       1  ZINC001173835973    0.1600
     41 H41       -13.1840    2.8376   55.3852 H       1  ZINC001173835973    0.1400
     42 H42       -13.0479    0.4660   54.7294 H       1  ZINC001173835973    0.1400
     43 H43       -10.2898   -1.3218   55.6951 H       1  ZINC001173835973    0.1400
@<TRIPOS>BOND
     1     1     2    1
     2     1    27    1
     3     1    28    1
     4     1    29    1
     5     2     3    2
     6     2     4   am
     7     4     5    1
     8     4    30    1
     9     5    26   ar
    10     5     6   ar
    11     6     7   ar
    12     6    31    1
    13     7     8   ar
    14     7    32    1
    15     8     9   ar
    16     8    33    1
    17     9    10    1
    18     9    26   ar
    19    10    11    1
    20    10    34    1
    21    11    25   ar
    22    11    12   ar
    23    12    13    1
    24    12    14   ar
    25    13    35    1
    26    13    36    1
    27    14    19   ar
    28    14    15   ar
    29    15    16   ar
    30    15    37    1
    31    16    17   ar
    32    16    38    1
    33    17    18   ar
    34    17    39    1
    35    18    19   ar
    36    19    20   ar
    37    20    25   ar
    38    20    21   ar
    39    21    22   ar
    40    22    23   ar
    41    22    40    1
    42    23    24   ar
    43    23    41    1
    44    24    25   ar
    45    24    42    1
    46    26    43    1
@<TRIPOS>SUBSTRUCTURE
     1 ZINC001173835973        1 TEMP              0 ****  ****    0 ROOT


##########                                Name:    ZINC000942661662
##########                DOCK_Rotatable_Bonds:                   6
##########                         Heavy_Atoms:                  25
##########                    Molecular_Weight:             343.426
##########                DOCK_Rotatable_Bonds:                   6
##########                       Formal_Charge:           0.0399997
##########                     HBond_Acceptors:                   6
##########                        HBond_Donors:                   1
##########                         Heavy_Atoms:                  25
##########                          Grid_Score:          -27.302443
##########                     Grid_vdw_energy:          -26.869247
##########                      Grid_es_energy:           -0.433195
##########           Internal_energy_repulsive:           30.655485

@<TRIPOS>MOLECULE
ZINC000942661662
 50 52 1 0 0
SMALL
USER_CHARGES


@<TRIPOS>ATOM
      1 C1         -8.4184    2.9102   55.8602 C.3     1  ZINC000942661662   -0.1700
      2 C2         -7.8454    1.8246   54.9470 C.3     1  ZINC000942661662    0.1000
      3 N3         -8.6566    1.7314   53.7307 N.am    1  ZINC000942661662   -0.6000
      4 C4         -8.2500    2.3437   52.6010 C.2     1  ZINC000942661662    0.6000
      5 O5         -8.9234    2.2663   51.5912 O.2     1  ZINC000942661662   -0.5200
      6 C6         -6.9894    3.1072   52.5894 C.2     1  ZINC000942661662   -0.2400
      7 C7         -5.8287    2.7728   51.9555 C.2     1  ZINC000942661662    0.0700
      8 C8         -5.6018    1.5346   51.1269 C.3     1  ZINC000942661662   -0.0900
      9 O9         -4.9270    3.7300   52.1941 O.3     1  ZINC000942661662   -0.1700
     10 C10        -5.4467    4.6955   52.9680 C.2     1  ZINC000942661662   -0.0300
     11 C11        -6.7221    4.3913   53.2533 C.2     1  ZINC000942661662   -0.1900
     12 C12        -9.9097    0.9724   53.7423 C.3     1  ZINC000942661662    0.1400
     13 H13       -10.6954    1.5114   53.2131 H       1  ZINC000942661662    0.1100
     14 C14       -10.3445    0.6390   55.1939 C.3     1  ZINC000942661662   -0.1400
     15 C15       -11.1842   -0.6437   55.0172 C.3     1  ZINC000942661662    0.1000
     16 N16       -10.7738   -1.2626   53.7483 N.am    1  ZINC000942661662   -0.6200
     17 C17       -11.2882   -2.3922   53.2228 C.2     1  ZINC000942661662    0.6100
     18 O18       -10.8692   -2.8151   52.1615 O.2     1  ZINC000942661662   -0.5200
     19 C19       -12.3530   -3.1114   53.9301 C.2     1  ZINC000942661662   -0.0600
     20 C20       -13.6956   -3.0931   53.6174 C.2     1  ZINC000942661662   -0.0700
     21 C21       -14.3418   -2.3325   52.4883 C.3     1  ZINC000942661662   -0.0900
     22 C22       -14.3447   -3.9138   54.5451 C.2     1  ZINC000942661662   -0.2100
     23 C23       -13.4081   -4.4081   55.3895 C.2     1  ZINC000942661662    0.0500
     24 C24       -13.6730   -5.3402   56.5437 C.3     1  ZINC000942661662   -0.0900
     25 N25       -12.1929   -3.9325   55.0233 N.pl3   1  ZINC000942661662   -0.5400
     26 C26        -9.7073   -0.4423   53.1446 C.3     1  ZINC000942661662    0.0900
     27 H27        -7.8148    2.9796   56.7652 H       1  ZINC000942661662    0.0700
     28 H28        -8.4039    3.8677   55.3396 H       1  ZINC000942661662    0.0600
     29 H29        -9.4445    2.6568   56.1263 H       1  ZINC000942661662    0.0600
     30 H30        -6.8192    2.0780   54.6809 H       1  ZINC000942661662    0.0900
     31 H31        -7.8598    0.8670   55.4676 H       1  ZINC000942661662    0.0800
     32 H32        -5.8602    1.7403   50.0881 H       1  ZINC000942661662    0.0900
     33 H33        -4.5535    1.2426   51.1896 H       1  ZINC000942661662    0.0900
     34 H34        -6.2276    0.7256   51.5037 H       1  ZINC000942661662    0.1000
     35 H35        -4.9235    5.5787   53.3035 H       1  ZINC000942661662    0.2100
     36 H36        -7.4094    4.9682   53.8543 H       1  ZINC000942661662    0.1600
     37 H37        -9.4749    0.4472   55.8226 H       1  ZINC000942661662    0.1000
     38 H38       -10.9518    1.4434   55.6089 H       1  ZINC000942661662    0.0900
     39 H39       -10.9925   -1.3289   55.8430 H       1  ZINC000942661662    0.0700
     40 H40       -12.2438   -0.3911   54.9807 H       1  ZINC000942661662    0.0700
     41 H41       -14.3641   -2.9571   51.5953 H       1  ZINC000942661662    0.0700
     42 H42       -15.3601   -2.0623   52.7682 H       1  ZINC000942661662    0.0600
     43 H43       -13.7687   -1.4279   52.2848 H       1  ZINC000942661662    0.0800
     44 H44       -15.4048   -4.1171   54.5820 H       1  ZINC000942661662    0.1400
     45 H45       -13.6032   -6.3724   56.2004 H       1  ZINC000942661662    0.0800
     46 H46       -12.9352   -5.1672   57.3272 H       1  ZINC000942661662    0.0700
     47 H47       -14.6721   -5.1552   56.9382 H       1  ZINC000942661662    0.0900
     48 H48       -11.3512   -4.1328   55.4619 H       1  ZINC000942661662    0.4100
     49 H49        -9.8165   -0.4165   52.0604 H       1  ZINC000942661662    0.0800
     50 H50        -8.7273   -0.8327   53.4187 H       1  ZINC000942661662    0.1000
@<TRIPOS>BOND
     1     1     2    1
     2     1    27    1
     3     1    28    1
     4     1    29    1
     5     2     3    1
     6     2    30    1
     7     2    31    1
     8     3     4   am
     9     3    12    1
    10     4     5    2
    11     4     6    1
    12     6    11    1
    13     6     7    2
    14     7     8    1
    15     7     9    1
    16     8    32    1
    17     8    33    1
    18     8    34    1
    19     9    10    1
    20    10    11    2
    21    10    35    1
    22    11    36    1
    23    12    13    1
    24    12    26    1
    25    12    14    1
    26    14    15    1
    27    14    37    1
    28    14    38    1
    29    15    16    1
    30    15    39    1
    31    15    40    1
    32    16    17   am
    33    16    26    1
    34    17    18    2
    35    17    19    1
    36    19    25    1
    37    19    20    2
    38    20    21    1
    39    20    22    1
    40    21    41    1
    41    21    42    1
    42    21    43    1
    43    22    23    2
    44    22    44    1
    45    23    24    1
    46    23    25    1
    47    24    45    1
    48    24    46    1
    49    24    47    1
    50    25    48    1
    51    26    49    1
    52    26    50    1
@<TRIPOS>SUBSTRUCTURE
     1 ZINC000942661662        1 TEMP              0 ****  ****    0 ROOT


##########                                Name:    ZINC000647468483
##########                DOCK_Rotatable_Bonds:                   5
##########                         Heavy_Atoms:                  24
##########                    Molecular_Weight:             341.373
##########                DOCK_Rotatable_Bonds:                   5
##########                       Formal_Charge:           0.0300004
##########                     HBond_Acceptors:                   6
##########                        HBond_Donors:                   2
##########                         Heavy_Atoms:                  24
##########                          Grid_Score:          -27.289177
##########                     Grid_vdw_energy:          -26.166735
##########                      Grid_es_energy:           -1.122442
##########           Internal_energy_repulsive:           20.285799

@<TRIPOS>MOLECULE
ZINC000647468483
 46 48 1 0 0
SMALL
USER_CHARGES


@<TRIPOS>ATOM
      1 O1        -15.9882   -1.1967   60.3689 O.co2   1  ZINC000647468483   -0.6800
      2 C2        -16.6971   -1.6096   59.4670 C.2     1  ZINC000647468483    0.5000
      3 O3        -17.8244   -1.1669   59.3262 O.co2   1  ZINC000647468483   -0.6900
      4 C4        -16.1777   -2.6626   58.5222 C.3     1  ZINC000647468483   -0.1500
      5 H5        -16.9991   -3.2486   58.1100 H       1  ZINC000647468483    0.0800
      6 C6        -15.1515   -3.5796   59.2328 C.3     1  ZINC000647468483   -0.1100
      7 C7        -14.2946   -4.1500   58.0838 C.3     1  ZINC000647468483   -0.1400
      8 C8        -14.4119   -3.1578   56.9136 C.3     1  ZINC000647468483    0.0100
      9 H9        -14.8484   -3.6532   56.0463 H       1  ZINC000647468483    0.1400
     10 N10       -13.0870   -2.6225   56.5730 N.4     1  ZINC000647468483   -0.5000
     11 H11       -13.1946   -1.7778   56.0317 H       1  ZINC000647468483    0.4200
     12 H12       -12.5795   -2.4166   57.4204 H       1  ZINC000647468483    0.4300
     13 C13       -12.3446   -3.6168   55.7867 C.3     1  ZINC000647468483    0.0200
     14 H14       -12.2691   -4.5513   56.3426 H       1  ZINC000647468483    0.1500
     15 C15       -13.0509   -3.8591   54.4414 C.3     1  ZINC000647468483   -0.1400
     16 C16       -12.0467   -3.4642   53.3389 C.3     1  ZINC000647468483   -0.1300
     17 C17       -11.0845   -2.4727   54.0390 C.3     1  ZINC000647468483   -0.1300
     18 C18       -10.9353   -3.0834   55.4560 C.3     1  ZINC000647468483   -0.0600
     19 H19       -10.2111   -3.8980   55.4459 H       1  ZINC000647468483    0.1300
     20 C20       -10.5226   -2.0247   56.4459 C.ar    1  ZINC000647468483   -0.1200
     21 C21       -10.1593   -0.7673   56.0017 C.ar    1  ZINC000647468483   -0.0700
     22 C22        -9.7806    0.2040   56.9098 C.ar    1  ZINC000647468483   -0.1000
     23 C23        -9.7657   -0.0823   58.2619 C.ar    1  ZINC000647468483   -0.0600
     24 C24       -10.1299   -1.3399   58.7062 C.ar    1  ZINC000647468483   -0.1600
     25 C25       -10.1132   -1.6521   60.1805 C.3     1  ZINC000647468483    0.5000
     26 F26        -9.7216   -2.9816   60.3711 F       1  ZINC000647468483   -0.1700
     27 F27        -9.2093   -0.8023   60.8270 F       1  ZINC000647468483   -0.1700
     28 F28       -11.3934   -1.4623   60.7118 F       1  ZINC000647468483   -0.1700
     29 C29       -10.5126   -2.3095   57.7987 C.ar    1  ZINC000647468483   -0.1100
     30 C30       -15.3403   -2.0187   57.3894 C.3     1  ZINC000647468483   -0.1200
     31 H31       -14.5332   -3.0006   59.9187 H       1  ZINC000647468483    0.0800
     32 H32       -15.6617   -4.3835   59.7635 H       1  ZINC000647468483    0.0800
     33 H33       -13.2548   -4.2337   58.3996 H       1  ZINC000647468483    0.0700
     34 H34       -14.6741   -5.1271   57.7845 H       1  ZINC000647468483    0.1000
     35 H35       -13.3176   -4.9115   54.3440 H       1  ZINC000647468483    0.1000
     36 H36       -13.9447   -3.2390   54.3719 H       1  ZINC000647468483    0.0900
     37 H37       -11.5020   -4.3404   52.9873 H       1  ZINC000647468483    0.0800
     38 H38       -12.5613   -2.9762   52.5112 H       1  ZINC000647468483    0.0900
     39 H39       -10.1221   -2.4426   53.5283 H       1  ZINC000647468483    0.0900
     40 H40       -11.5264   -1.4776   54.0917 H       1  ZINC000647468483    0.0800
     41 H41       -10.1710   -0.5436   54.9451 H       1  ZINC000647468483    0.1400
     42 H42        -9.4961    1.1862   56.5626 H       1  ZINC000647468483    0.1500
     43 H43        -9.4691    0.6761   58.9712 H       1  ZINC000647468483    0.1500
     44 H44       -10.7971   -3.2918   58.1458 H       1  ZINC000647468483    0.1400
     45 H45       -15.9836   -1.6854   56.5751 H       1  ZINC000647468483    0.0900
     46 H46       -14.7540   -1.1862   57.7788 H       1  ZINC000647468483    0.1000
@<TRIPOS>BOND
     1     1     2   ar
     2     2     3   ar
     3     2     4    1
     4     4     5    1
     5     4    30    1
     6     4     6    1
     7     6     7    1
     8     6    31    1
     9     6    32    1
    10     7     8    1
    11     7    33    1
    12     7    34    1
    13     8     9    1
    14     8    10    1
    15     8    30    1
    16    10    11    1
    17    10    12    1
    18    10    13    1
    19    13    14    1
    20    13    18    1
    21    13    15    1
    22    15    16    1
    23    15    35    1
    24    15    36    1
    25    16    17    1
    26    16    37    1
    27    16    38    1
    28    17    18    1
    29    17    39    1
    30    17    40    1
    31    18    19    1
    32    18    20    1
    33    20    29   ar
    34    20    21   ar
    35    21    22   ar
    36    21    41    1
    37    22    23   ar
    38    22    42    1
    39    23    24   ar
    40    23    43    1
    41    24    25    1
    42    24    29   ar
    43    25    26    1
    44    25    27    1
    45    25    28    1
    46    29    44    1
    47    30    45    1
    48    30    46    1
@<TRIPOS>SUBSTRUCTURE
     1 ZINC000647468483        1 TEMP              0 ****  ****    0 ROOT


##########                                Name:    ZINC001179023006
##########                DOCK_Rotatable_Bonds:                   3
##########                         Heavy_Atoms:                  25
##########                    Molecular_Weight:             340.465
##########                DOCK_Rotatable_Bonds:                   3
##########                       Formal_Charge:          -0.0100005
##########                     HBond_Acceptors:                   4
##########                        HBond_Donors:                   1
##########                         Heavy_Atoms:                  25
##########                          Grid_Score:          -27.175308
##########                     Grid_vdw_energy:          -26.546066
##########                      Grid_es_energy:           -0.629242
##########           Internal_energy_repulsive:           42.742874

@<TRIPOS>MOLECULE
ZINC001179023006
 53 56 1 0 0
SMALL
USER_CHARGES


@<TRIPOS>ATOM
      1 C1         -9.5990   -1.0103   62.1843 C.3     1  ZINC001179023006   -0.1500
      2 C2        -10.5112   -1.5392   61.0758 C.3     1  ZINC001179023006   -0.1100
      3 C3        -11.6897   -0.5824   60.8853 C.3     1  ZINC001179023006   -0.1100
      4 C4        -12.9868   -1.2989   60.6108 C.2     1  ZINC001179023006    0.5400
      5 O5        -13.9005   -1.2244   61.4047 O.2     1  ZINC001179023006   -0.5400
      6 N6        -13.1315   -2.0223   59.4828 N.am    1  ZINC001179023006   -0.5900
      7 C7        -12.0364   -2.1175   58.5081 C.3     1  ZINC001179023006    0.1000
      8 C8        -12.5597   -1.7205   57.1297 C.3     1  ZINC001179023006   -0.1200
      9 C9        -13.7777   -2.5881   56.7803 C.3     1  ZINC001179023006   -0.0500
     10 C10       -14.8838   -2.3165   57.8106 C.3     1  ZINC001179023006   -0.1100
     11 C11       -14.3895   -2.7267   59.2005 C.3     1  ZINC001179023006    0.0900
     12 C12       -14.2825   -2.2023   55.3989 C.3     1  ZINC001179023006   -0.0800
     13 C13       -13.2104   -2.3352   54.3611 C.ar    1  ZINC001179023006   -0.0700
     14 C14       -12.6458   -1.1770   53.8362 C.ar    1  ZINC001179023006   -0.1100
     15 C15       -11.6125   -1.2661   52.9243 C.ar    1  ZINC001179023006   -0.1100
     16 C16       -11.1370   -2.5023   52.5291 C.ar    1  ZINC001179023006   -0.1200
     17 C17       -11.7100   -3.6525   53.0420 C.ar    1  ZINC001179023006   -0.1000
     18 C18       -12.7508   -3.5504   53.9479 C.ar    1  ZINC001179023006   -0.1100
     19 C19       -13.3976   -4.8002   54.4882 C.3     1  ZINC001179023006    0.1400
     20 N20       -13.2015   -4.9274   55.9153 N.am    1  ZINC001179023006   -0.7000
     21 C21       -13.3880   -4.0309   56.8495 C.2     1  ZINC001179023006    0.5200
     22 O22       -13.2128   -4.4442   57.9762 O.2     1  ZINC001179023006   -0.5500
     23 C23       -11.3996    0.5645   59.9027 C.3     1  ZINC001179023006   -0.1200
     24 C24       -12.1701    1.4811   60.8704 C.3     1  ZINC001179023006   -0.1400
     25 C25       -11.7980    0.4881   61.9841 C.3     1  ZINC001179023006   -0.1300
     26 H26        -8.7394   -1.6715   62.2939 H       1  ZINC001179023006    0.0600
     27 H27        -9.2562   -0.0085   61.9257 H       1  ZINC001179023006    0.0500
     28 H28       -10.1515   -0.9741   63.1233 H       1  ZINC001179023006    0.0600
     29 H29       -10.8847   -2.5252   61.3522 H       1  ZINC001179023006    0.0700
     30 H30        -9.9480   -1.6118   60.1454 H       1  ZINC001179023006    0.0700
     31 H31       -11.2294   -1.4449   58.7985 H       1  ZINC001179023006    0.0900
     32 H32       -11.6659   -3.1421   58.4738 H       1  ZINC001179023006    0.0800
     33 H33       -11.7787   -1.8725   56.3848 H       1  ZINC001179023006    0.0800
     34 H34       -12.8521   -0.6705   57.1418 H       1  ZINC001179023006    0.0800
     35 H35       -15.7707   -2.8958   57.5540 H       1  ZINC001179023006    0.0800
     36 H36       -15.1300   -1.2546   57.8104 H       1  ZINC001179023006    0.0800
     37 H37       -14.2190   -3.8030   59.2246 H       1  ZINC001179023006    0.1200
     38 H38       -15.1353   -2.4562   59.9480 H       1  ZINC001179023006    0.0800
     39 H39       -15.1179   -2.8496   55.1319 H       1  ZINC001179023006    0.0800
     40 H40       -14.6285   -1.1689   55.4224 H       1  ZINC001179023006    0.0900
     41 H41       -13.0151   -0.2092   54.1419 H       1  ZINC001179023006    0.1200
     42 H42       -11.1745   -0.3663   52.5182 H       1  ZINC001179023006    0.1200
     43 H43       -10.3222   -2.5699   51.8236 H       1  ZINC001179023006    0.1300
     44 H44       -11.3475   -4.6231   52.7372 H       1  ZINC001179023006    0.1300
     45 H45       -12.9649   -5.6683   53.9909 H       1  ZINC001179023006    0.0900
     46 H46       -14.4665   -4.7673   54.2775 H       1  ZINC001179023006    0.0800
     47 H47       -12.8895   -5.7936   56.2207 H       1  ZINC001179023006    0.4000
     48 H48       -10.3410    0.8099   59.8185 H       1  ZINC001179023006    0.0900
     49 H49       -11.8854    0.4433   58.9346 H       1  ZINC001179023006    0.0800
     50 H50       -13.2399    1.5280   60.6667 H       1  ZINC001179023006    0.0800
     51 H51       -11.7194    2.4657   60.9948 H       1  ZINC001179023006    0.0700
     52 H52       -12.6050    0.3054   62.6937 H       1  ZINC001179023006    0.0700
     53 H53       -10.8485    0.7127   62.4700 H       1  ZINC001179023006    0.0900
@<TRIPOS>BOND
     1     1     2    1
     2     1    26    1
     3     1    27    1
     4     1    28    1
     5     2     3    1
     6     2    29    1
     7     2    30    1
     8     3    25    1
     9     3     4    1
    10     3    23    1
    11     4     5    2
    12     4     6   am
    13     6    11    1
    14     6     7    1
    15     7     8    1
    16     7    31    1
    17     7    32    1
    18     8     9    1
    19     8    33    1
    20     8    34    1
    21     9    21    1
    22     9    10    1
    23     9    12    1
    24    10    11    1
    25    10    35    1
    26    10    36    1
    27    11    37    1
    28    11    38    1
    29    12    13    1
    30    12    39    1
    31    12    40    1
    32    13    18   ar
    33    13    14   ar
    34    14    15   ar
    35    14    41    1
    36    15    16   ar
    37    15    42    1
    38    16    17   ar
    39    16    43    1
    40    17    18   ar
    41    17    44    1
    42    18    19    1
    43    19    20    1
    44    19    45    1
    45    19    46    1
    46    20    21   am
    47    20    47    1
    48    21    22    2
    49    23    24    1
    50    23    48    1
    51    23    49    1
    52    24    25    1
    53    24    50    1
    54    24    51    1
    55    25    52    1
    56    25    53    1
@<TRIPOS>SUBSTRUCTURE
     1 ZINC001179023006        1 TEMP              0 ****  ****    0 ROOT


##########                                Name:    ZINC000656860804
##########                DOCK_Rotatable_Bonds:                   2
##########                         Heavy_Atoms:                  19
##########                    Molecular_Weight:             388.068
##########                DOCK_Rotatable_Bonds:                   2
##########                       Formal_Charge:          8.9407e-08
##########                     HBond_Acceptors:                   8
##########                        HBond_Donors:                   1
##########                         Heavy_Atoms:                  19
##########                          Grid_Score:          -27.129694
##########                     Grid_vdw_energy:          -27.012472
##########                      Grid_es_energy:           -0.117221
##########           Internal_energy_repulsive:           13.933009

@<TRIPOS>MOLECULE
ZINC000656860804
 28 29 1 0 0
SMALL
USER_CHARGES


@<TRIPOS>ATOM
      1 O1         -9.2896   -1.1380   52.0997 O.2     1  ZINC000656860804   -0.5400
      2 C2        -10.4842   -1.2961   52.2363 C.2     1  ZINC000656860804    0.5100
      3 C3        -10.9997   -2.6863   52.4908 C.3     1  ZINC000656860804    0.1100
      4 N4        -12.4028   -2.6022   52.9226 N.am    1  ZINC000656860804   -1.0000
      5 S5        -12.9767   -3.5257   54.1717 S.o2    1  ZINC000656860804    2.6900
      6 O6        -14.3061   -3.0877   54.4168 O.2     1  ZINC000656860804   -0.9200
      7 O7        -12.6472   -4.8723   53.8595 O.2     1  ZINC000656860804   -0.9300
      8 C8        -12.0418   -3.1042   55.6044 C.ar    1  ZINC000656860804   -0.6500
      9 C9        -11.2530   -1.9695   55.6052 C.ar    1  ZINC000656860804    0.0100
     10 C10       -10.5187   -1.6380   56.7300 C.ar    1  ZINC000656860804   -0.0400
     11 Cl11       -9.5281   -0.2124   56.7311 Cl      1  ZINC000656860804   -0.0200
     12 C12       -10.5744   -2.4434   57.8548 C.ar    1  ZINC000656860804    0.0200
     13 Cl13       -9.6538   -2.0279   59.2668 Cl      1  ZINC000656860804   -0.0100
     14 C14       -11.3644   -3.5790   57.8532 C.ar    1  ZINC000656860804   -0.0900
     15 C15       -12.1023   -3.9061   56.7303 C.ar    1  ZINC000656860804    0.0100
     16 Br16      -13.1821   -5.4584   56.7280 Br      1  ZINC000656860804    0.0100
     17 C17       -13.2768   -1.6631   52.1996 C.3     1  ZINC000656860804    0.0900
     18 C18       -12.7184   -0.2510   52.3861 C.3     1  ZINC000656860804    0.0800
     19 N19       -11.2802   -0.2285   52.1593 N.am    1  ZINC000656860804   -0.7100
     20 H20       -10.9341   -3.2734   51.5747 H       1  ZINC000656860804    0.1200
     21 H21       -10.4048   -3.1588   53.2724 H       1  ZINC000656860804    0.1200
     22 H22       -11.2093   -1.3417   54.7275 H       1  ZINC000656860804    0.1700
     23 H23       -11.4079   -4.2077   58.7302 H       1  ZINC000656860804    0.1700
     24 H24       -13.2910   -1.9158   51.1393 H       1  ZINC000656860804    0.1000
     25 H25       -14.2875   -1.7153   52.6042 H       1  ZINC000656860804    0.1200
     26 H26       -13.2055    0.4234   51.6818 H       1  ZINC000656860804    0.1000
     27 H27       -12.9231    0.0843   53.4029 H       1  ZINC000656860804    0.0800
     28 H28       -10.8729    0.6215   51.9301 H       1  ZINC000656860804    0.4000
@<TRIPOS>BOND
     1     1     2    2
     2     2    19   am
     3     2     3    1
     4     3     4    1
     5     3    20    1
     6     3    21    1
     7     4     5   am
     8     4    17    1
     9     5     6    2
    10     5     7    2
    11     5     8    1
    12     8    15   ar
    13     8     9   ar
    14     9    10   ar
    15     9    22    1
    16    10    11    1
    17    10    12   ar
    18    12    13    1
    19    12    14   ar
    20    14    15   ar
    21    14    23    1
    22    15    16    1
    23    17    18    1
    24    17    24    1
    25    17    25    1
    26    18    19    1
    27    18    26    1
    28    18    27    1
    29    19    28    1
@<TRIPOS>SUBSTRUCTURE
     1 ZINC000656860804        1 TEMP              0 ****  ****    0 ROOT


##########                                Name:    ZINC000371438955
##########                DOCK_Rotatable_Bonds:                   4
##########                         Heavy_Atoms:                  25
##########                    Molecular_Weight:             387.499
##########                DOCK_Rotatable_Bonds:                   4
##########                       Formal_Charge:          -0.0299995
##########                     HBond_Acceptors:                   9
##########                        HBond_Donors:                   1
##########                         Heavy_Atoms:                  25
##########                          Grid_Score:          -27.045046
##########                     Grid_vdw_energy:          -26.432547
##########                      Grid_es_energy:           -0.612500
##########           Internal_energy_repulsive:           19.888018

@<TRIPOS>MOLECULE
ZINC000371438955
 47 49 1 0 0
SMALL
USER_CHARGES


@<TRIPOS>ATOM
      1 C1        -10.3919    2.2195   62.2253 C.3     1  ZINC000371438955   -0.6800
      2 S2        -11.0469    1.4356   60.7263 S.o2    1  ZINC000371438955    2.6000
      3 O3        -12.3626    1.8991   60.4554 O.2     1  ZINC000371438955   -0.9500
      4 O4        -10.0571    1.4034   59.7072 O.2     1  ZINC000371438955   -0.9500
      5 N5        -11.2521   -0.1530   61.1467 N.am    1  ZINC000371438955   -0.9900
      6 C6        -10.1108   -0.9118   61.5709 C.3     1  ZINC000371438955    0.1300
      7 C7         -9.4307   -1.4867   60.3170 C.3     1  ZINC000371438955   -0.1700
      8 C8        -10.1419   -2.6669   59.8011 C.3     1  ZINC000371438955    0.1400
      9 N9        -11.5463   -2.3216   59.4774 N.am    1  ZINC000371438955   -0.6200
     10 C10       -11.9135   -2.1272   58.1952 C.2     1  ZINC000371438955    0.7100
     11 O11       -13.0655   -1.8440   57.9289 O.2     1  ZINC000371438955   -0.5800
     12 N12       -11.0036   -2.2470   57.2081 N.am    1  ZINC000371438955   -0.7400
     13 C13       -11.4027   -2.0358   55.8144 C.3     1  ZINC000371438955    0.2000
     14 H14       -12.4044   -1.6062   55.8005 H       1  ZINC000371438955    0.1100
     15 C15       -11.4408   -3.3810   55.1105 C.3     1  ZINC000371438955   -0.1300
     16 C16       -11.8978   -3.1724   53.6598 C.3     1  ZINC000371438955   -0.1100
     17 S17       -10.5242   -2.3879   52.7676 S.3     1  ZINC000371438955   -0.1000
     18 C18       -10.0278   -1.1059   53.8738 C.ar    1  ZINC000371438955   -0.1100
     19 C19        -9.1711   -0.1175   53.3809 C.ar    1  ZINC000371438955    0.1100
     20 F20        -8.7641   -0.1654   52.0936 F       1  ZINC000371438955   -0.1300
     21 C21        -8.7380    0.9068   54.1970 C.ar    1  ZINC000371438955   -0.1300
     22 C22        -9.1552    0.9498   55.5152 C.ar    1  ZINC000371438955   -0.1000
     23 C23       -10.0019   -0.0218   56.0023 C.ar    1  ZINC000371438955   -0.1000
     24 C24       -10.4527   -1.0593   55.1855 C.ar    1  ZINC000371438955   -0.0800
     25 C25       -12.5165   -2.1942   60.5287 C.3     1  ZINC000371438955    0.1000
     26 C26       -12.6157   -0.7459   61.0781 C.3     1  ZINC000371438955    0.0900
     27 H27       -11.1080    2.1030   63.0388 H       1  ZINC000371438955    0.1300
     28 H28        -9.4493    1.7465   62.5006 H       1  ZINC000371438955    0.1300
     29 H29       -10.2249    3.2801   62.0374 H       1  ZINC000371438955    0.1300
     30 H30        -9.4146   -0.2638   62.1035 H       1  ZINC000371438955    0.0800
     31 H31       -10.4303   -1.7250   62.2225 H       1  ZINC000371438955    0.0800
     32 H32        -9.4071   -0.7199   59.5427 H       1  ZINC000371438955    0.0800
     33 H33        -8.4078   -1.7693   60.5660 H       1  ZINC000371438955    0.0900
     34 H34        -9.6417   -3.0245   58.9010 H       1  ZINC000371438955    0.0900
     35 H35       -10.1286   -3.4542   60.5549 H       1  ZINC000371438955    0.0700
     36 H36       -10.0846   -2.4730   57.4205 H       1  ZINC000371438955    0.4000
     37 H37       -10.4457   -3.8256   55.1191 H       1  ZINC000371438955    0.0900
     38 H38       -12.1413   -4.0409   55.6223 H       1  ZINC000371438955    0.1000
     39 H39       -12.1351   -4.1336   53.2039 H       1  ZINC000371438955    0.1200
     40 H40       -12.7736   -2.5237   53.6365 H       1  ZINC000371438955    0.1000
     41 H41        -8.0780    1.6689   53.8100 H       1  ZINC000371438955    0.1400
     42 H42        -8.8169    1.7451   56.1628 H       1  ZINC000371438955    0.1300
     43 H43       -10.3205    0.0198   57.0334 H       1  ZINC000371438955    0.1400
     44 H44       -13.4922   -2.4942   60.1463 H       1  ZINC000371438955    0.0800
     45 H45       -12.2402   -2.8603   61.3460 H       1  ZINC000371438955    0.0900
     46 H46       -13.0608   -0.7643   62.0730 H       1  ZINC000371438955    0.0800
     47 H47       -13.2370   -0.1465   60.4128 H       1  ZINC000371438955    0.1000
@<TRIPOS>BOND
     1     1     2    1
     2     1    27    1
     3     1    28    1
     4     1    29    1
     5     2     3    2
     6     2     4    2
     7     2     5   am
     8     5    26    1
     9     5     6    1
    10     6     7    1
    11     6    30    1
    12     6    31    1
    13     7     8    1
    14     7    32    1
    15     7    33    1
    16     8     9    1
    17     8    34    1
    18     8    35    1
    19     9    10   am
    20     9    25    1
    21    10    11    2
    22    10    12   am
    23    12    13    1
    24    12    36    1
    25    13    14    1
    26    13    24    1
    27    13    15    1
    28    15    16    1
    29    15    37    1
    30    15    38    1
    31    16    17    1
    32    16    39    1
    33    16    40    1
    34    17    18    1
    35    18    24   ar
    36    18    19   ar
    37    19    20    1
    38    19    21   ar
    39    21    22   ar
    40    21    41    1
    41    22    23   ar
    42    22    42    1
    43    23    24   ar
    44    23    43    1
    45    25    26    1
    46    25    44    1
    47    25    45    1
    48    26    46    1
    49    26    47    1
@<TRIPOS>SUBSTRUCTURE
     1 ZINC000371438955        1 TEMP              0 ****  ****    0 ROOT


##########                                Name:    ZINC000482962466
##########                DOCK_Rotatable_Bonds:                   2
##########                         Heavy_Atoms:                  25
##########                    Molecular_Weight:             404.303
##########                DOCK_Rotatable_Bonds:                   2
##########                       Formal_Charge:           0.0200002
##########                     HBond_Acceptors:                   4
##########                        HBond_Donors:                   0
##########                         Heavy_Atoms:                  25
##########                          Grid_Score:          -27.004036
##########                     Grid_vdw_energy:          -26.372591
##########                      Grid_es_energy:           -0.631444
##########           Internal_energy_repulsive:            6.874434

@<TRIPOS>MOLECULE
ZINC000482962466
 47 50 1 0 0
SMALL
USER_CHARGES


@<TRIPOS>ATOM
      1 C1         -9.3534   -2.6752   60.9086 C.3     1  ZINC000482962466   -0.1400
      2 C2        -10.3965   -2.4506   59.8120 C.3     1  ZINC000482962466    0.0700
      3 H3        -11.3907   -2.6593   60.2071 H       1  ZINC000482962466    0.0700
      4 C4        -10.1079   -3.3849   58.6315 C.3     1  ZINC000482962466    0.0800
      5 N5        -11.0034   -3.0223   57.5217 N.am    1  ZINC000482962466   -0.6100
      6 C6        -11.7417   -3.9575   56.8917 C.2     1  ZINC000482962466    0.5600
      7 O7        -11.6735   -5.1207   57.2383 O.2     1  ZINC000482962466   -0.5200
      8 C8        -12.6339   -3.5690   55.7798 C.ar    1  ZINC000482962466   -0.1100
      9 C9        -14.0282   -3.6055   55.9586 C.ar    1  ZINC000482962466   -0.0700
     10 C10       -14.8684   -3.2532   54.9524 C.ar    1  ZINC000482962466   -0.1000
     11 C11       -14.3476   -2.8449   53.7109 C.ar    1  ZINC000482962466   -0.0400
     12 C12       -15.1972   -2.4758   52.6551 C.ar    1  ZINC000482962466   -0.0700
     13 C13       -14.6636   -2.0844   51.4642 C.ar    1  ZINC000482962466   -0.0800
     14 Br14      -15.8129   -1.5881   50.0470 Br      1  ZINC000482962466   -0.0400
     15 C15       -13.2824   -2.0438   51.2748 C.ar    1  ZINC000482962466   -0.1000
     16 C16       -12.4286   -2.3945   52.2743 C.ar    1  ZINC000482962466   -0.0900
     17 C17       -12.9429   -2.8035   53.5182 C.ar    1  ZINC000482962466   -0.0500
     18 C18       -12.0903   -3.1661   54.5710 C.ar    1  ZINC000482962466   -0.0700
     19 C19       -11.0687   -1.6080   57.1198 C.3     1  ZINC000482962466    0.0700
     20 C20       -11.3076   -0.7603   58.3732 C.3     1  ZINC000482962466    0.0800
     21 C21       -11.1878    0.7234   58.0164 C.3     1  ZINC000482962466   -0.1100
     22 C22       -11.5072    1.5629   59.2574 C.3     1  ZINC000482962466   -0.1500
     23 C23       -12.9037    1.1959   59.7663 C.3     1  ZINC000482962466    0.0600
     24 O24       -12.9539   -0.2034   60.0513 O.3     1  ZINC000482962466   -0.3700
     25 C25       -12.7103   -1.0386   58.9174 C.3     1  ZINC000482962466    0.0400
     26 O26       -10.3352   -1.0937   59.3654 O.3     1  ZINC000482962466   -0.3500
     27 H27        -9.5581   -2.0092   61.7467 H       1  ZINC000482962466    0.0700
     28 H28        -9.3993   -3.7103   61.2472 H       1  ZINC000482962466    0.0800
     29 H29        -8.3595   -2.4663   60.5128 H       1  ZINC000482962466    0.0700
     30 H30        -9.0702   -3.2706   58.3181 H       1  ZINC000482962466    0.0800
     31 H31       -10.2905   -4.4179   58.9279 H       1  ZINC000482962466    0.1000
     32 H32       -14.4358   -3.9182   56.9087 H       1  ZINC000482962466    0.1400
     33 H33       -15.9371   -3.2868   55.1047 H       1  ZINC000482962466    0.1400
     34 H34       -16.2688   -2.5025   52.7865 H       1  ZINC000482962466    0.1400
     35 H35       -12.8850   -1.7297   50.3209 H       1  ZINC000482962466    0.1400
     36 H36       -11.3612   -2.3590   52.1136 H       1  ZINC000482962466    0.1400
     37 H37       -11.0188   -3.1354   54.4390 H       1  ZINC000482962466    0.1400
     38 H38       -10.1284   -1.3154   56.6523 H       1  ZINC000482962466    0.0900
     39 H39       -11.8893   -1.4635   56.4169 H       1  ZINC000482962466    0.1000
     40 H40       -10.1725    0.9374   57.6828 H       1  ZINC000482962466    0.0800
     41 H41       -11.8929    0.9652   57.2212 H       1  ZINC000482962466    0.0800
     42 H42       -10.7710    1.3586   60.0348 H       1  ZINC000482962466    0.0800
     43 H43       -11.4806    2.6213   58.9981 H       1  ZINC000482962466    0.0800
     44 H44       -13.1195    1.7596   60.6739 H       1  ZINC000482962466    0.1000
     45 H45       -13.6437    1.4381   59.0035 H       1  ZINC000482962466    0.0500
     46 H46       -13.4488   -0.8267   58.1443 H       1  ZINC000482962466    0.0600
     47 H47       -12.7841   -2.0849   59.2140 H       1  ZINC000482962466    0.1000
@<TRIPOS>BOND
     1     1     2    1
     2     1    27    1
     3     1    28    1
     4     1    29    1
     5     2     3    1
     6     2    26    1
     7     2     4    1
     8     4     5    1
     9     4    30    1
    10     4    31    1
    11     5     6   am
    12     5    19    1
    13     6     7    2
    14     6     8    1
    15     8    18   ar
    16     8     9   ar
    17     9    10   ar
    18     9    32    1
    19    10    11   ar
    20    10    33    1
    21    11    17   ar
    22    11    12   ar
    23    12    13   ar
    24    12    34    1
    25    13    14    1
    26    13    15   ar
    27    15    16   ar
    28    15    35    1
    29    16    17   ar
    30    16    36    1
    31    17    18   ar
    32    18    37    1
    33    19    20    1
    34    19    38    1
    35    19    39    1
    36    20    25    1
    37    20    21    1
    38    20    26    1
    39    21    22    1
    40    21    40    1
    41    21    41    1
    42    22    23    1
    43    22    42    1
    44    22    43    1
    45    23    24    1
    46    23    44    1
    47    23    45    1
    48    24    25    1
    49    25    46    1
    50    25    47    1
@<TRIPOS>SUBSTRUCTURE
     1 ZINC000482962466        1 TEMP              0 ****  ****    0 ROOT


##########                                Name:    ZINC000950547210
##########                DOCK_Rotatable_Bonds:                   5
##########                         Heavy_Atoms:                  25
##########                    Molecular_Weight:              346.47
##########                DOCK_Rotatable_Bonds:                   5
##########                       Formal_Charge:         5.58794e-07
##########                     HBond_Acceptors:                   5
##########                        HBond_Donors:                   1
##########                         Heavy_Atoms:                  25
##########                          Grid_Score:          -26.701855
##########                     Grid_vdw_energy:          -26.576935
##########                      Grid_es_energy:           -0.124919
##########           Internal_energy_repulsive:           20.919460

@<TRIPOS>MOLECULE
ZINC000950547210
 55 58 1 0 0
SMALL
USER_CHARGES


@<TRIPOS>ATOM
      1 O1        -12.9913   -1.2143   57.6143 O.2     1  ZINC000950547210   -0.5200
      2 C2        -12.1010   -2.0045   57.3819 C.2     1  ZINC000950547210    0.5200
      3 N3        -11.7233   -2.2393   56.1097 N.am    1  ZINC000950547210   -0.7300
      4 C4        -12.3922   -1.5445   55.0070 C.3     1  ZINC000950547210    0.1300
      5 H5        -13.3745   -1.2038   55.3342 H       1  ZINC000950547210    0.0900
      6 C6        -11.5510   -0.3404   54.5769 C.3     1  ZINC000950547210   -0.1300
      7 C7        -12.2648    0.4051   53.4470 C.3     1  ZINC000950547210   -0.1300
      8 C8        -12.4220   -0.5294   52.2434 C.3     1  ZINC000950547210    0.1000
      9 N9        -13.1032   -1.7551   52.6822 N.am    1  ZINC000950547210   -0.6100
     10 C10       -14.2133   -2.1870   52.0518 C.2     1  ZINC000950547210    0.5600
     11 O11       -14.7680   -3.2031   52.4246 O.2     1  ZINC000950547210   -0.5200
     12 C12       -14.7541   -1.4295   50.9127 C.2     1  ZINC000950547210   -0.1400
     13 C13       -14.1189   -1.4773   49.7556 C.2     1  ZINC000950547210   -0.1500
     14 C14       -14.5925   -0.7297   48.5411 C.3     1  ZINC000950547210    0.0900
     15 O15       -15.9447   -0.3052   48.7224 O.3     1  ZINC000950547210   -0.3700
     16 C16       -16.1572    0.3809   49.9620 C.3     1  ZINC000950547210    0.0600
     17 C17       -16.0149   -0.6317   51.1037 C.3     1  ZINC000950547210   -0.1100
     18 C18       -12.5516   -2.5014   53.8214 C.3     1  ZINC000950547210    0.1000
     19 C19       -11.4130   -2.7193   58.5163 C.3     1  ZINC000950547210   -0.1000
     20 H20       -11.6401   -3.7842   58.4659 H       1  ZINC000950547210    0.1000
     21 C21       -11.9079   -2.1549   59.8495 C.3     1  ZINC000950547210   -0.1100
     22 C22       -10.7256   -1.5740   60.6278 C.3     1  ZINC000950547210   -0.0900
     23 C23        -9.6972   -2.6758   60.8907 C.3     1  ZINC000950547210   -0.1100
     24 C24        -9.2024   -3.2401   59.5575 C.3     1  ZINC000950547210   -0.1100
     25 C25        -9.9008   -2.5145   58.4057 C.3     1  ZINC000950547210   -0.0600
     26 C26        -9.5820   -1.0197   58.4766 C.3     1  ZINC000950547210   -0.1300
     27 C27       -10.0769   -0.4554   59.8099 C.3     1  ZINC000950547210   -0.1200
     28 H28       -11.0086   -2.8685   55.9242 H       1  ZINC000950547210    0.4000
     29 H29       -11.4159    0.3299   55.4258 H       1  ZINC000950547210    0.0800
     30 H30       -10.5775   -0.6839   54.2271 H       1  ZINC000950547210    0.0700
     31 H31       -13.2486    0.7274   53.7883 H       1  ZINC000950547210    0.0700
     32 H32       -11.6766    1.2758   53.1571 H       1  ZINC000950547210    0.0900
     33 H33       -13.0160   -0.0370   51.4735 H       1  ZINC000950547210    0.0900
     34 H34       -11.4390   -0.7804   51.8447 H       1  ZINC000950547210    0.0700
     35 H35       -13.2238   -2.0769   49.6794 H       1  ZINC000950547210    0.1200
     36 H36       -13.9579    0.1423   48.3832 H       1  ZINC000950547210    0.0700
     37 H37       -14.5319   -1.3811   47.6693 H       1  ZINC000950547210    0.1100
     38 H38       -15.4158    1.1719   50.0746 H       1  ZINC000950547210    0.0600
     39 H39       -17.1594    0.8093   49.9765 H       1  ZINC000950547210    0.1000
     40 H40       -16.8769   -1.2989   51.1067 H       1  ZINC000950547210    0.0900
     41 H41       -15.9633   -0.1016   52.0547 H       1  ZINC000950547210    0.0900
     42 H42       -11.5790   -2.9133   53.5519 H       1  ZINC000950547210    0.0700
     43 H43       -13.2308   -3.3098   54.0919 H       1  ZINC000950547210    0.1000
     44 H44       -12.6406   -1.3699   59.6623 H       1  ZINC000950547210    0.0700
     45 H45       -12.3701   -2.9517   60.4323 H       1  ZINC000950547210    0.0700
     46 H46       -11.0782   -1.1719   61.5776 H       1  ZINC000950547210    0.0700
     47 H47        -8.8550   -2.2619   61.4452 H       1  ZINC000950547210    0.0600
     48 H48       -10.1594   -3.4727   61.4734 H       1  ZINC000950547210    0.0600
     49 H49        -8.1250   -3.0942   59.4787 H       1  ZINC000950547210    0.0700
     50 H50        -9.4294   -4.3050   59.5070 H       1  ZINC000950547210    0.0600
     51 H51        -9.5482   -2.9165   57.4561 H       1  ZINC000950547210    0.0800
     52 H52        -8.5047   -0.8738   58.3979 H       1  ZINC000950547210    0.0600
     53 H53       -10.0796   -0.5027   57.6562 H       1  ZINC000950547210    0.0900
     54 H54       -10.8096    0.3296   59.6226 H       1  ZINC000950547210    0.0600
     55 H55        -9.2347   -0.0415   60.3644 H       1  ZINC000950547210    0.0600
@<TRIPOS>BOND
     1     1     2    2
     2     2     3   am
     3     2    19    1
     4     3     4    1
     5     3    28    1
     6     4     5    1
     7     4    18    1
     8     4     6    1
     9     6     7    1
    10     6    29    1
    11     6    30    1
    12     7     8    1
    13     7    31    1
    14     7    32    1
    15     8     9    1
    16     8    33    1
    17     8    34    1
    18     9    10   am
    19     9    18    1
    20    10    11    2
    21    10    12    1
    22    12    17    1
    23    12    13    2
    24    13    14    1
    25    13    35    1
    26    14    15    1
    27    14    36    1
    28    14    37    1
    29    15    16    1
    30    16    17    1
    31    16    38    1
    32    16    39    1
    33    17    40    1
    34    17    41    1
    35    18    42    1
    36    18    43    1
    37    19    20    1
    38    19    25    1
    39    19    21    1
    40    21    22    1
    41    21    44    1
    42    21    45    1
    43    22    27    1
    44    22    23    1
    45    22    46    1
    46    23    24    1
    47    23    47    1
    48    23    48    1
    49    24    25    1
    50    24    49    1
    51    24    50    1
    52    25    26    1
    53    25    51    1
    54    26    27    1
    55    26    52    1
    56    26    53    1
    57    27    54    1
    58    27    55    1
@<TRIPOS>SUBSTRUCTURE
     1 ZINC000950547210        1 TEMP              0 ****  ****    0 ROOT


##########                                Name:    ZINC001211202056
##########                DOCK_Rotatable_Bonds:                   4
##########                         Heavy_Atoms:                  23
##########                    Molecular_Weight:             386.181
##########                DOCK_Rotatable_Bonds:                   4
##########                       Formal_Charge:           0.0199999
##########                     HBond_Acceptors:                  11
##########                        HBond_Donors:                   3
##########                         Heavy_Atoms:                  23
##########                          Grid_Score:          -26.693243
##########                     Grid_vdw_energy:          -26.371218
##########                      Grid_es_energy:           -0.322026
##########           Internal_energy_repulsive:            5.760275

@<TRIPOS>MOLECULE
ZINC001211202056
 31 32 1 0 0
SMALL
USER_CHARGES


@<TRIPOS>ATOM
      1 N1        -14.0449    1.6144   61.6378 N.pl3   1  ZINC001211202056   -0.8500
      2 C2        -12.9779    0.7159   61.5527 C.ar    1  ZINC001211202056    0.2900
      3 C3        -11.7255    1.0757   62.0320 C.ar    1  ZINC001211202056   -0.2000
      4 C4        -10.6726    0.1852   61.9464 C.ar    1  ZINC001211202056    0.0400
      5 C5        -10.8644   -1.0630   61.3840 C.ar    1  ZINC001211202056   -0.7300
      6 S6         -9.5184   -2.1951   61.2771 S.o2    1  ZINC001211202056    2.6900
      7 O7         -8.5469   -1.7532   62.2152 O.2     1  ZINC001211202056   -0.9400
      8 O8        -10.0865   -3.4973   61.3017 O.2     1  ZINC001211202056   -0.9300
      9 N9         -8.8395   -2.0093   59.7782 N.am    1  ZINC001211202056   -1.0500
     10 C10        -9.6058   -2.2343   58.6310 C.ar    1  ZINC001211202056    0.1600
     11 C11       -10.1050   -3.5034   58.3528 C.ar    1  ZINC001211202056   -0.1200
     12 C12       -10.8599   -3.6769   57.2034 C.ar    1  ZINC001211202056   -0.0800
     13 C13       -11.0909   -2.5938   56.3772 C.ar    1  ZINC001211202056    0.0400
     14 C14       -11.9110   -2.7757   55.1259 C.3     1  ZINC001211202056    0.5300
     15 F15       -11.9895   -1.5596   54.4390 F       1  ZINC001211202056   -0.1700
     16 F16       -11.3059   -3.7355   54.3073 F       1  ZINC001211202056   -0.1600
     17 F17       -13.1985   -3.2012   55.4699 F       1  ZINC001211202056   -0.1700
     18 N18       -10.6044   -1.4026   56.6682 N.ar    1  ZINC001211202056   -0.4100
     19 C19        -9.8855   -1.1923   57.7534 C.ar    1  ZINC001211202056    0.1600
     20 Cl20       -9.2722    0.3979   58.0837 Cl      1  ZINC001211202056    0.0000
     21 C21       -12.1105   -1.4255   60.9052 C.ar    1  ZINC001211202056    0.0400
     22 C22       -13.1693   -0.5422   60.9932 C.ar    1  ZINC001211202056   -0.1400
     23 Cl23      -14.7331   -0.9975   60.3922 Cl      1  ZINC001211202056   -0.0500
     24 H24       -14.9204    1.3604   61.3062 H       1  ZINC001211202056    0.4100
     25 H25       -13.9110    2.4905   62.0320 H       1  ZINC001211202056    0.4100
     26 H26       -11.5744    2.0507   62.4710 H       1  ZINC001211202056    0.1400
     27 H27        -9.6983    0.4647   62.3192 H       1  ZINC001211202056    0.1500
     28 H28        -7.9100   -1.7444   59.6963 H       1  ZINC001211202056    0.4400
     29 H29        -9.9087   -4.3328   59.0162 H       1  ZINC001211202056    0.2000
     30 H30       -11.2628   -4.6479   56.9562 H       1  ZINC001211202056    0.1700
     31 H31       -12.2568   -2.4014   60.4664 H       1  ZINC001211202056    0.1500
@<TRIPOS>BOND
     1     1     2    1
     2     1    24    1
     3     1    25    1
     4     2    22   ar
     5     2     3   ar
     6     3     4   ar
     7     3    26    1
     8     4     5   ar
     9     4    27    1
    10     5     6    1
    11     5    21   ar
    12     6     7    2
    13     6     8    2
    14     6     9   am
    15     9    10    1
    16     9    28    1
    17    10    19   ar
    18    10    11   ar
    19    11    12   ar
    20    11    29    1
    21    12    13   ar
    22    12    30    1
    23    13    14    1
    24    13    18   ar
    25    14    15    1
    26    14    16    1
    27    14    17    1
    28    18    19   ar
    29    19    20    1
    30    21    22   ar
    31    21    31    1
    32    22    23    1
@<TRIPOS>SUBSTRUCTURE
     1 ZINC001211202056        1 TEMP              0 ****  ****    0 ROOT


##########                                Name:    ZINC001018118384
##########                DOCK_Rotatable_Bonds:                   5
##########                         Heavy_Atoms:                  25
##########                    Molecular_Weight:             347.374
##########                DOCK_Rotatable_Bonds:                   5
##########                       Formal_Charge:           0.0299997
##########                     HBond_Acceptors:                   9
##########                        HBond_Donors:                   2
##########                         Heavy_Atoms:                  25
##########                          Grid_Score:          -26.486696
##########                     Grid_vdw_energy:          -25.545914
##########                      Grid_es_energy:           -0.940782
##########           Internal_energy_repulsive:           96.933632

@<TRIPOS>MOLECULE
ZINC001018118384
 46 48 1 0 0
SMALL
USER_CHARGES


@<TRIPOS>ATOM
      1 C1        -11.8401    2.2065   59.0716 C.3     1  ZINC001018118384   -0.0700
      2 C2        -11.5063    0.9891   58.2485 C.2     1  ZINC001018118384    0.2200
      3 N3        -12.0773   -0.1757   58.3558 N.2     1  ZINC001018118384   -0.4600
      4 C4        -11.5184   -1.0234   57.4546 C.2     1  ZINC001018118384   -0.0700
      5 C5        -11.8782   -2.4372   57.2493 C.2     1  ZINC001018118384    0.6100
      6 O6        -11.2678   -3.3112   57.8348 O.2     1  ZINC001018118384   -0.5400
      7 N7        -12.8837   -2.7620   56.4127 N.am    1  ZINC001018118384   -0.5900
      8 C8        -13.6264   -1.7177   55.6938 C.3     1  ZINC001018118384    0.0700
      9 C9        -13.6056   -2.0402   54.1964 C.3     1  ZINC001018118384    0.1300
     10 H10       -14.2331   -1.3269   53.6620 H       1  ZINC001018118384    0.1100
     11 N11       -12.2313   -1.9529   53.6965 N.am    1  ZINC001018118384   -0.7000
     12 C12       -11.7426   -0.7710   53.2714 C.2     1  ZINC001018118384    0.6000
     13 O13       -12.4422    0.2218   53.3014 O.2     1  ZINC001018118384   -0.4900
     14 C14       -10.3517   -0.6824   52.7673 C.2     1  ZINC001018118384    0.0300
     15 C15        -9.5659   -1.7248   52.3747 C.2     1  ZINC001018118384   -0.2300
     16 C16        -8.3444   -1.1074   51.9842 C.2     1  ZINC001018118384    0.4800
     17 O17        -7.3429   -1.6594   51.5595 O.2     1  ZINC001018118384   -0.5200
     18 N18        -8.5244    0.2143   52.1803 N.am    1  ZINC001018118384   -0.4500
     19 C19        -7.5149    1.2403   51.9073 C.3     1  ZINC001018118384    0.1100
     20 O20        -9.6334    0.4393   52.6065 O.3     1  ZINC001018118384    0.0000
     21 C21       -14.1410   -3.4568   53.9762 C.3     1  ZINC001018118384   -0.1300
     22 C22       -13.2416   -4.4620   54.6993 C.3     1  ZINC001018118384   -0.1300
     23 C23       -13.2542   -4.1674   56.1977 C.3     1  ZINC001018118384    0.1400
     24 H24       -14.2541   -4.3407   56.5958 H       1  ZINC001018118384    0.0700
     25 C25       -12.2538   -5.0811   56.9085 C.3     1  ZINC001018118384   -0.1400
     26 C26       -10.5631   -0.3273   56.7733 C.2     1  ZINC001018118384    0.0400
     27 N27       -10.5649    0.9319   57.2707 N.pl3   1  ZINC001018118384   -0.5600
     28 H28       -12.6255    2.7765   58.5752 H       1  ZINC001018118384    0.0900
     29 H29       -12.1852    1.8951   60.0575 H       1  ZINC001018118384    0.1000
     30 H30       -10.9513    2.8285   59.1773 H       1  ZINC001018118384    0.0800
     31 H31       -14.6569   -1.6926   56.0480 H       1  ZINC001018118384    0.0800
     32 H32       -13.1550   -0.7500   55.8659 H       1  ZINC001018118384    0.1500
     33 H33       -11.6731   -2.7458   53.6713 H       1  ZINC001018118384    0.4100
     34 H34        -9.8130   -2.7761   52.3632 H       1  ZINC001018118384    0.1900
     35 H35        -7.6197    1.5887   50.8798 H       1  ZINC001018118384    0.0800
     36 H36        -7.6538    2.0778   52.5910 H       1  ZINC001018118384    0.0900
     37 H37        -6.5201    0.8176   52.0479 H       1  ZINC001018118384    0.1100
     38 H38       -15.1547   -3.5272   54.3706 H       1  ZINC001018118384    0.0900
     39 H39       -14.1504   -3.6797   52.9093 H       1  ZINC001018118384    0.0800
     40 H40       -13.6100   -5.4726   54.5227 H       1  ZINC001018118384    0.0800
     41 H41       -12.2225   -4.3749   54.3227 H       1  ZINC001018118384    0.0600
     42 H42       -11.2572   -4.9170   56.4987 H       1  ZINC001018118384    0.0700
     43 H43       -12.2499   -4.8555   57.9749 H       1  ZINC001018118384    0.0800
     44 H44       -12.5416   -6.1216   56.7583 H       1  ZINC001018118384    0.0400
     45 H45        -9.9300   -0.7068   55.9850 H       1  ZINC001018118384    0.1900
     46 H46        -9.9921    1.6605   56.9848 H       1  ZINC001018118384    0.4300
@<TRIPOS>BOND
     1     1     2    1
     2     1    28    1
     3     1    29    1
     4     1    30    1
     5     2    27    1
     6     2     3    2
     7     3     4    1
     8     4     5    1
     9     4    26    2
    10     5     6    2
    11     5     7   am
    12     7    23    1
    13     7     8    1
    14     8     9    1
    15     8    31    1
    16     8    32    1
    17     9    10    1
    18     9    11    1
    19     9    21    1
    20    11    12   am
    21    11    33    1
    22    12    13    2
    23    12    14    1
    24    14    20    1
    25    14    15    2
    26    15    16    1
    27    15    34    1
    28    16    17    2
    29    16    18   am
    30    18    19    1
    31    18    20    1
    32    19    35    1
    33    19    36    1
    34    19    37    1
    35    21    22    1
    36    21    38    1
    37    21    39    1
    38    22    23    1
    39    22    40    1
    40    22    41    1
    41    23    24    1
    42    23    25    1
    43    25    42    1
    44    25    43    1
    45    25    44    1
    46    26    27    1
    47    26    45    1
    48    27    46    1
@<TRIPOS>SUBSTRUCTURE
     1 ZINC001018118384        1 TEMP              0 ****  ****    0 ROOT


##########                                Name:    ZINC000455156110
##########                DOCK_Rotatable_Bonds:                   4
##########                         Heavy_Atoms:                  27
##########                    Molecular_Weight:             370.424
##########                DOCK_Rotatable_Bonds:                   4
##########                       Formal_Charge:           0.0100002
##########                     HBond_Acceptors:                   6
##########                        HBond_Donors:                   1
##########                         Heavy_Atoms:                  27
##########                          Grid_Score:          -26.481451
##########                     Grid_vdw_energy:          -26.758936
##########                      Grid_es_energy:            0.277485
##########           Internal_energy_repulsive:           45.728199

@<TRIPOS>MOLECULE
ZINC000455156110
 50 53 1 0 0
SMALL
USER_CHARGES


@<TRIPOS>ATOM
      1 C1         -7.5776    3.9045   50.9781 C.3     1  ZINC000455156110    0.0300
      2 O2         -7.0064    4.0567   52.2792 O.3     1  ZINC000455156110   -0.3100
      3 C3         -7.4443    3.2092   53.2489 C.ar    1  ZINC000455156110    0.0900
      4 C4         -6.9220    3.2931   54.5299 C.ar    1  ZINC000455156110   -0.1600
      5 C5         -7.3663    2.4328   55.5158 C.ar    1  ZINC000455156110   -0.0800
      6 C6         -6.7971    2.5246   56.9081 C.3     1  ZINC000455156110   -0.1100
      7 C7         -8.3368    1.4843   55.2242 C.ar    1  ZINC000455156110    0.1500
      8 N8         -8.7878    0.6126   56.2245 N.am    1  ZINC000455156110   -0.6700
      9 C9         -9.5747    1.0747   57.2164 C.2     1  ZINC000455156110    0.7200
     10 O10        -9.8933    2.2478   57.2432 O.2     1  ZINC000455156110   -0.5500
     11 N11       -10.0084    0.2363   58.1785 N.am    1  ZINC000455156110   -0.5600
     12 C12        -9.6871   -1.1924   58.2565 C.3     1  ZINC000455156110    0.1000
     13 C13       -10.4083   -1.6938   59.5136 C.3     1  ZINC000455156110   -0.0200
     14 C14       -11.4234   -2.7737   59.1464 C.3     1  ZINC000455156110   -0.1400
     15 C15       -10.6794   -4.0063   58.6232 C.3     1  ZINC000455156110    0.0600
     16 O16        -9.7481   -4.4526   59.6110 O.3     1  ZINC000455156110   -0.3800
     17 C17        -8.7389   -3.4954   59.9396 C.3     1  ZINC000455156110    0.0600
     18 C18        -9.3988   -2.2408   60.5202 C.3     1  ZINC000455156110   -0.1400
     19 C19       -11.1071   -0.4803   60.0734 C.ar    1  ZINC000455156110   -0.1300
     20 C20       -11.9067   -0.3227   61.1890 C.ar    1  ZINC000455156110   -0.0700
     21 C21       -12.4383    0.9166   61.4942 C.ar    1  ZINC000455156110   -0.1400
     22 C22       -12.1681    2.0007   60.6797 C.ar    1  ZINC000455156110   -0.0900
     23 C23       -11.3715    1.8486   59.5647 C.ar    1  ZINC000455156110   -0.1300
     24 C24       -10.8262    0.6024   59.2528 C.ar    1  ZINC000455156110    0.1600
     25 C25        -8.8613    1.3998   53.9412 C.ar    1  ZINC000455156110   -0.1200
     26 C26        -8.4196    2.2636   52.9565 C.ar    1  ZINC000455156110    0.0900
     27 F27        -8.9294    2.1826   51.7080 F       1  ZINC000455156110   -0.1300
     28 H28        -7.1423    4.6402   50.3019 H       1  ZINC000455156110    0.1000
     29 H29        -7.3707    2.9012   50.6057 H       1  ZINC000455156110    0.0600
     30 H30        -8.6556    4.0559   51.0346 H       1  ZINC000455156110    0.0600
     31 H31        -6.1670    4.0310   54.7577 H       1  ZINC000455156110    0.1400
     32 H32        -7.3940    3.2189   57.4996 H       1  ZINC000455156110    0.0800
     33 H33        -6.8171    1.5395   57.3746 H       1  ZINC000455156110    0.0600
     34 H34        -5.7685    2.8817   56.8574 H       1  ZINC000455156110    0.0800
     35 H35        -8.5336   -0.3232   56.2030 H       1  ZINC000455156110    0.4100
     36 H36       -10.0586   -1.7129   57.3738 H       1  ZINC000455156110    0.0800
     37 H37        -8.6109   -1.3338   58.3557 H       1  ZINC000455156110    0.0900
     38 H38       -12.0019   -3.0451   60.0294 H       1  ZINC000455156110    0.0800
     39 H39       -12.0927   -2.3967   58.3732 H       1  ZINC000455156110    0.0800
     40 H40       -11.3951   -4.8010   58.4128 H       1  ZINC000455156110    0.1000
     41 H41       -10.1442   -3.7473   57.7096 H       1  ZINC000455156110    0.0500
     42 H42        -8.0586   -3.9226   60.6763 H       1  ZINC000455156110    0.1000
     43 H43        -8.1823   -3.2306   59.0405 H       1  ZINC000455156110    0.0500
     44 H44        -8.6368   -1.4870   60.7182 H       1  ZINC000455156110    0.0800
     45 H45        -9.9109   -2.4949   61.4482 H       1  ZINC000455156110    0.0800
     46 H46       -12.1175   -1.1702   61.8242 H       1  ZINC000455156110    0.1300
     47 H47       -13.0633    1.0374   62.3665 H       1  ZINC000455156110    0.1300
     48 H48       -12.5827    2.9692   60.9173 H       1  ZINC000455156110    0.1300
     49 H49       -11.1646    2.6992   58.9320 H       1  ZINC000455156110    0.1400
     50 H50        -9.6165    0.6621   53.7137 H       1  ZINC000455156110    0.1700
@<TRIPOS>BOND
     1     1     2    1
     2     1    28    1
     3     1    29    1
     4     1    30    1
     5     2     3    1
     6     3    26   ar
     7     3     4   ar
     8     4     5   ar
     9     4    31    1
    10     5     6    1
    11     5     7   ar
    12     6    32    1
    13     6    33    1
    14     6    34    1
    15     7     8    1
    16     7    25   ar
    17     8     9   am
    18     8    35    1
    19     9    10    2
    20     9    11   am
    21    11    24    1
    22    11    12    1
    23    12    13    1
    24    12    36    1
    25    12    37    1
    26    13    18    1
    27    13    14    1
    28    13    19    1
    29    14    15    1
    30    14    38    1
    31    14    39    1
    32    15    16    1
    33    15    40    1
    34    15    41    1
    35    16    17    1
    36    17    18    1
    37    17    42    1
    38    17    43    1
    39    18    44    1
    40    18    45    1
    41    19    24   ar
    42    19    20   ar
    43    20    21   ar
    44    20    46    1
    45    21    22   ar
    46    21    47    1
    47    22    23   ar
    48    22    48    1
    49    23    24   ar
    50    23    49    1
    51    25    26   ar
    52    25    50    1
    53    26    27    1
@<TRIPOS>SUBSTRUCTURE
     1 ZINC000455156110        1 TEMP              0 ****  ****    0 ROOT


##########                                Name:    ZINC000550782577
##########                DOCK_Rotatable_Bonds:                   5
##########                         Heavy_Atoms:                  25
##########                    Molecular_Weight:              338.45
##########                DOCK_Rotatable_Bonds:                   5
##########                       Formal_Charge:         -0.00999954
##########                     HBond_Acceptors:                   4
##########                        HBond_Donors:                   0
##########                         Heavy_Atoms:                  25
##########                          Grid_Score:          -26.421938
##########                     Grid_vdw_energy:          -26.377728
##########                      Grid_es_energy:           -0.044211
##########           Internal_energy_repulsive:           31.693207

@<TRIPOS>MOLECULE
ZINC000550782577
 51 53 1 0 0
SMALL
USER_CHARGES


@<TRIPOS>ATOM
      1 C1        -12.7366   -2.7992   56.8734 C.3     1  ZINC000550782577    0.0700
      2 N2        -11.5736   -1.9835   57.2315 N.am    1  ZINC000550782577   -0.5900
      3 C3        -10.9742   -1.2181   56.2981 C.2     1  ZINC000550782577    0.5800
      4 O4        -10.0093   -0.5413   56.5951 O.2     1  ZINC000550782577   -0.5400
      5 C5        -11.4908   -1.2015   54.9120 C.ar    1  ZINC000550782577    0.0300
      6 C6        -11.4226   -2.3583   54.1366 C.ar    1  ZINC000550782577   -0.0600
      7 C7        -11.9090   -2.3307   52.8416 C.ar    1  ZINC000550782577   -0.1200
      8 C8        -12.4502   -1.1415   52.3617 C.ar    1  ZINC000550782577    0.1100
      9 O9        -12.9389   -1.0705   51.0975 O.3     1  ZINC000550782577   -0.3000
     10 C10       -14.3593   -1.0097   50.9535 C.3     1  ZINC000550782577    0.1000
     11 C11       -14.7873    0.4418   50.7281 C.3     1  ZINC000550782577   -0.2000
     12 C12       -14.7873   -1.8596   49.7554 C.3     1  ZINC000550782577   -0.1400
     13 C13       -15.0241   -1.5462   52.2228 C.3     1  ZINC000550782577   -0.2000
     14 C14       -12.4848   -0.0254   53.1941 C.ar    1  ZINC000550782577   -0.0100
     15 N15       -12.0195   -0.0864   54.4209 N.ar    1  ZINC000550782577   -0.4100
     16 C16       -11.0620   -1.9999   58.6042 C.3     1  ZINC000550782577    0.1400
     17 H17       -11.6049   -2.7422   59.1892 H       1  ZINC000550782577    0.1100
     18 C18        -9.5677   -2.3425   58.5941 C.3     1  ZINC000550782577   -0.1300
     19 C19        -9.1197   -2.5875   60.0337 C.3     1  ZINC000550782577   -0.0800
     20 C20        -9.5418   -1.4458   60.9210 C.ar    1  ZINC000550782577   -0.0800
     21 C21        -8.9077   -1.3129   62.1492 C.ar    1  ZINC000550782577   -0.1200
     22 C22        -9.2532   -0.2912   63.0097 C.ar    1  ZINC000550782577   -0.1200
     23 C23       -10.2390    0.6074   62.6474 C.ar    1  ZINC000550782577   -0.1200
     24 C24       -10.8686    0.4785   61.4264 C.ar    1  ZINC000550782577   -0.1200
     25 C25       -10.5197   -0.5470   60.5575 C.ar    1  ZINC000550782577   -0.0700
     26 C26       -11.2370   -0.6198   59.2348 C.3     1  ZINC000550782577   -0.0900
     27 H27       -12.4002   -3.7392   56.4359 H       1  ZINC000550782577    0.0600
     28 H28       -13.3254   -3.0047   57.7674 H       1  ZINC000550782577    0.0600
     29 H29       -13.3494   -2.2608   56.1506 H       1  ZINC000550782577    0.1100
     30 H30       -10.9956   -3.2639   54.5414 H       1  ZINC000550782577    0.1600
     31 H31       -11.8693   -3.2113   52.2174 H       1  ZINC000550782577    0.1500
     32 H32       -14.6803    0.6925   49.6727 H       1  ZINC000550782577    0.0700
     33 H33       -15.8284    0.5642   51.0268 H       1  ZINC000550782577    0.0800
     34 H34       -14.1582    1.1030   51.3241 H       1  ZINC000550782577    0.0800
     35 H35       -14.4823   -2.8936   49.9160 H       1  ZINC000550782577    0.0700
     36 H36       -15.8707   -1.8130   49.6455 H       1  ZINC000550782577    0.0800
     37 H37       -14.3136   -1.4773   48.8511 H       1  ZINC000550782577    0.0700
     38 H38       -14.7229   -0.9379   53.0756 H       1  ZINC000550782577    0.0800
     39 H39       -16.1075   -1.5041   52.1110 H       1  ZINC000550782577    0.0800
     40 H40       -14.7155   -2.5788   52.3860 H       1  ZINC000550782577    0.0700
     41 H41       -12.9035    0.9003   52.8278 H       1  ZINC000550782577    0.1900
     42 H42        -9.4011   -3.2410   58.0000 H       1  ZINC000550782577    0.0700
     43 H43        -9.0034   -1.5117   58.1705 H       1  ZINC000550782577    0.0700
     44 H44        -9.5696   -3.5111   60.3978 H       1  ZINC000550782577    0.0800
     45 H45        -8.0341   -2.6818   60.0611 H       1  ZINC000550782577    0.0800
     46 H46        -8.1380   -2.0152   62.4334 H       1  ZINC000550782577    0.1200
     47 H47        -8.7554   -0.1940   63.9632 H       1  ZINC000550782577    0.1200
     48 H48       -10.5159    1.4076   63.3179 H       1  ZINC000550782577    0.1200
     49 H49       -11.6390    1.1808   61.1443 H       1  ZINC000550782577    0.1200
     50 H50       -10.8299    0.1360   58.5630 H       1  ZINC000550782577    0.0800
     51 H51       -12.2985   -0.4271   59.3904 H       1  ZINC000550782577    0.0800
@<TRIPOS>BOND
     1     1     2    1
     2     1    27    1
     3     1    28    1
     4     1    29    1
     5     2     3   am
     6     2    16    1
     7     3     4    2
     8     3     5    1
     9     5    15   ar
    10     5     6   ar
    11     6     7   ar
    12     6    30    1
    13     7     8   ar
    14     7    31    1
    15     8     9    1
    16     8    14   ar
    17     9    10    1
    18    10    11    1
    19    10    12    1
    20    10    13    1
    21    11    32    1
    22    11    33    1
    23    11    34    1
    24    12    35    1
    25    12    36    1
    26    12    37    1
    27    13    38    1
    28    13    39    1
    29    13    40    1
    30    14    15   ar
    31    14    41    1
    32    16    17    1
    33    16    26    1
    34    16    18    1
    35    18    19    1
    36    18    42    1
    37    18    43    1
    38    19    20    1
    39    19    44    1
    40    19    45    1
    41    20    25   ar
    42    20    21   ar
    43    21    22   ar
    44    21    46    1
    45    22    23   ar
    46    22    47    1
    47    23    24   ar
    48    23    48    1
    49    24    25   ar
    50    24    49    1
    51    25    26    1
    52    26    50    1
    53    26    51    1
@<TRIPOS>SUBSTRUCTURE
     1 ZINC000550782577        1 TEMP              0 ****  ****    0 ROOT


##########                                Name:    ZINC000653668607
##########                DOCK_Rotatable_Bonds:                   5
##########                         Heavy_Atoms:                  28
##########                    Molecular_Weight:             379.459
##########                DOCK_Rotatable_Bonds:                   5
##########                       Formal_Charge:          0.00999918
##########                     HBond_Acceptors:                   6
##########                        HBond_Donors:                   2
##########                         Heavy_Atoms:                  28
##########                          Grid_Score:          -26.318110
##########                     Grid_vdw_energy:          -26.086550
##########                      Grid_es_energy:           -0.231560
##########           Internal_energy_repulsive:           12.562722

@<TRIPOS>MOLECULE
ZINC000653668607
 53 56 1 0 0
SMALL
USER_CHARGES


@<TRIPOS>ATOM
      1 C1        -11.7241   -3.7218   54.5039 C.3     1  ZINC000653668607    0.0300
      2 O2        -11.8569   -2.5269   55.2764 O.3     1  ZINC000653668607   -0.3200
      3 C3        -11.3509   -2.5480   56.5374 C.ar    1  ZINC000653668607    0.1300
      4 C4        -10.8102   -3.7172   57.0522 C.ar    1  ZINC000653668607   -0.2000
      5 C5        -10.2968   -3.7272   58.3318 C.ar    1  ZINC000653668607   -0.0800
      6 C6        -10.3157   -2.5772   59.1108 C.ar    1  ZINC000653668607   -0.1000
      7 C7         -9.7240   -2.6586   60.4940 C.3     1  ZINC000653668607   -0.0800
      8 C8        -10.1980   -1.4866   61.3509 C.3     1  ZINC000653668607   -0.1200
      9 C9         -9.9486   -0.1879   60.5749 C.3     1  ZINC000653668607   -0.1100
     10 C10       -10.9187   -0.1369   59.3965 C.3     1  ZINC000653668607   -0.0600
     11 H11       -11.9323    0.0053   59.7713 H       1  ZINC000653668607    0.1000
     12 C12       -10.5532    1.0192   58.5016 C.2     1  ZINC000653668607    0.5200
     13 O13       -11.3691    1.8852   58.2659 O.2     1  ZINC000653668607   -0.5100
     14 N14        -9.3199    1.0908   57.9630 N.am    1  ZINC000653668607   -0.6700
     15 C15        -8.9805    2.1642   57.1321 C.ar    1  ZINC000653668607    0.1500
     16 C16        -8.9737    3.4585   57.6362 C.ar    1  ZINC000653668607   -0.1100
     17 C17        -8.6387    4.5191   56.8162 C.ar    1  ZINC000653668607   -0.0900
     18 C18        -8.3096    4.2961   55.4933 C.ar    1  ZINC000653668607   -0.1200
     19 C19        -8.3150    3.0039   54.9829 C.ar    1  ZINC000653668607    0.1700
     20 N20        -7.9819    2.7788   53.6424 N.am    1  ZINC000653668607   -0.5800
     21 C21        -6.5987    2.9735   53.2049 C.3     1  ZINC000653668607    0.1100
     22 C22        -6.3084    2.0398   52.0250 C.3     1  ZINC000653668607   -0.1500
     23 C23        -7.3459    2.3022   50.9283 C.3     1  ZINC000653668607    0.1100
     24 N24        -8.6885    2.1438   51.4895 N.am    1  ZINC000653668607   -0.7400
     25 C25        -8.9356    2.3835   52.7859 C.2     1  ZINC000653668607    0.7100
     26 O26       -10.0710    2.2468   53.1989 O.2     1  ZINC000653668607   -0.5800
     27 C27        -8.6447    1.9363   55.8051 C.ar    1  ZINC000653668607   -0.1300
     28 C28       -10.8571   -1.4165   58.6039 C.ar    1  ZINC000653668607   -0.0300
     29 C29       -11.3671   -1.4012   57.3132 C.ar    1  ZINC000653668607   -0.1500
     30 H30       -10.6678   -3.9663   54.3916 H       1  ZINC000653668607    0.0600
     31 H31       -12.2347   -4.5407   55.0107 H       1  ZINC000653668607    0.0600
     32 H32       -12.1684   -3.5698   53.5203 H       1  ZINC000653668607    0.1000
     33 H33       -10.7920   -4.6158   56.4536 H       1  ZINC000653668607    0.1300
     34 H34        -9.8762   -4.6377   58.7323 H       1  ZINC000653668607    0.1300
     35 H35       -10.0318   -3.5936   60.9621 H       1  ZINC000653668607    0.0800
     36 H36        -8.6366   -2.6344   60.4217 H       1  ZINC000653668607    0.0800
     37 H37       -11.2628   -1.5910   61.5591 H       1  ZINC000653668607    0.0700
     38 H38        -9.6405   -1.4675   62.2873 H       1  ZINC000653668607    0.0800
     39 H39       -10.1187    0.6682   61.2278 H       1  ZINC000653668607    0.0700
     40 H40        -8.9227   -0.1714   60.2068 H       1  ZINC000653668607    0.0800
     41 H41        -8.6674    0.3982   58.1515 H       1  ZINC000653668607    0.4100
     42 H42        -9.2309    3.6361   58.6700 H       1  ZINC000653668607    0.1400
     43 H43        -8.6345    5.5246   57.2105 H       1  ZINC000653668607    0.1300
     44 H44        -8.0482    5.1271   54.8549 H       1  ZINC000653668607    0.1200
     45 H45        -6.4575    4.0085   52.8936 H       1  ZINC000653668607    0.0700
     46 H46        -5.9208    2.7436   54.0268 H       1  ZINC000653668607    0.0900
     47 H47        -5.3088    2.2383   51.6384 H       1  ZINC000653668607    0.1000
     48 H48        -6.3773    1.0026   52.3535 H       1  ZINC000653668607    0.0800
     49 H49        -7.2268    3.3174   50.5496 H       1  ZINC000653668607    0.0700
     50 H50        -7.2046    1.5902   50.1152 H       1  ZINC000653668607    0.0900
     51 H51        -9.4136    1.8560   50.9130 H       1  ZINC000653668607    0.4200
     52 H52        -8.6493    0.9309   55.4107 H       1  ZINC000653668607    0.1300
     53 H53       -11.7844   -0.4891   56.9127 H       1  ZINC000653668607    0.1200
@<TRIPOS>BOND
     1     1     2    1
     2     1    30    1
     3     1    31    1
     4     1    32    1
     5     2     3    1
     6     3    29   ar
     7     3     4   ar
     8     4     5   ar
     9     4    33    1
    10     5     6   ar
    11     5    34    1
    12     6    28   ar
    13     6     7    1
    14     7     8    1
    15     7    35    1
    16     7    36    1
    17     8     9    1
    18     8    37    1
    19     8    38    1
    20     9    10    1
    21     9    39    1
    22     9    40    1
    23    10    11    1
    24    10    12    1
    25    10    28    1
    26    12    13    2
    27    12    14   am
    28    14    15    1
    29    14    41    1
    30    15    27   ar
    31    15    16   ar
    32    16    17   ar
    33    16    42    1
    34    17    18   ar
    35    17    43    1
    36    18    19   ar
    37    18    44    1
    38    19    20    1
    39    19    27   ar
    40    20    25   am
    41    20    21    1
    42    21    22    1
    43    21    45    1
    44    21    46    1
    45    22    23    1
    46    22    47    1
    47    22    48    1
    48    23    24    1
    49    23    49    1
    50    23    50    1
    51    24    25   am
    52    24    51    1
    53    25    26    2
    54    27    52    1
    55    28    29   ar
    56    29    53    1
@<TRIPOS>SUBSTRUCTURE
     1 ZINC000653668607        1 TEMP              0 ****  ****    0 ROOT


##########                                Name:    ZINC000279974681
##########                DOCK_Rotatable_Bonds:                   4
##########                         Heavy_Atoms:                  23
##########                    Molecular_Weight:              338.79
##########                DOCK_Rotatable_Bonds:                   4
##########                       Formal_Charge:           0.0100008
##########                     HBond_Acceptors:                   7
##########                        HBond_Donors:                   1
##########                         Heavy_Atoms:                  23
##########                          Grid_Score:          -25.977644
##########                     Grid_vdw_energy:          -25.744993
##########                      Grid_es_energy:           -0.232651
##########           Internal_energy_repulsive:            8.643312

@<TRIPOS>MOLECULE
ZINC000279974681
 42 45 1 0 0
SMALL
USER_CHARGES


@<TRIPOS>ATOM
      1 C1        -11.0159    4.1209   60.5556 C.3     1  ZINC000279974681   -0.1400
      2 C2        -10.8153    2.6190   60.7677 C.3     1  ZINC000279974681    0.0700
      3 H3         -9.9425    2.2855   60.2063 H       1  ZINC000279974681    0.0600
      4 C4        -12.0568    1.8629   60.2810 C.3     1  ZINC000279974681    0.1000
      5 N5        -11.9193    0.4491   60.6652 N.am    1  ZINC000279974681   -0.6300
      6 C6        -12.0959   -0.5356   59.7620 C.2     1  ZINC000279974681    0.7100
      7 O7        -12.3731   -0.2616   58.6102 O.2     1  ZINC000279974681   -0.5600
      8 N8        -11.9651   -1.8240   60.1355 N.am    1  ZINC000279974681   -0.6700
      9 C9        -12.1488   -2.8482   59.1959 C.ar    1  ZINC000279974681    0.2000
     10 C10       -13.4304   -3.2135   58.8090 C.ar    1  ZINC000279974681   -0.1200
     11 C11       -13.6114   -4.2251   57.8804 C.ar    1  ZINC000279974681    0.0700
     12 C12       -12.5061   -4.8743   57.3362 C.ar    1  ZINC000279974681    0.0200
     13 C13       -11.2278   -4.5075   57.7251 C.ar    1  ZINC000279974681   -0.0700
     14 C14       -11.0475   -3.4937   58.6477 C.ar    1  ZINC000279974681   -0.0700
     15 Cl15       -9.4444   -3.0370   59.1325 Cl      1  ZINC000279974681   -0.0500
     16 O16       -12.9465   -5.8212   56.4556 O.3     1  ZINC000279974681   -0.3000
     17 C17       -14.3368   -6.0228   56.7713 C.3     1  ZINC000279974681    0.2100
     18 O18       -14.7438   -4.7647   57.3411 O.3     1  ZINC000279974681   -0.3000
     19 C19       -11.5828    0.1420   62.0644 C.3     1  ZINC000279974681    0.0800
     20 C20       -10.3644    0.9821   62.4642 C.3     1  ZINC000279974681    0.1100
     21 H21        -9.4898    0.6419   61.9096 H       1  ZINC000279974681    0.0700
     22 C22       -10.1089    0.8299   63.9650 C.3     1  ZINC000279974681   -0.1600
     23 C23        -9.6572    2.0729   64.7344 C.3     1  ZINC000279974681   -0.1700
     24 C24       -11.0759    1.5312   64.9209 C.3     1  ZINC000279974681   -0.1600
     25 O25       -10.6176    2.3555   62.1588 O.3     1  ZINC000279974681   -0.3600
     26 H26       -10.1336    4.6581   60.9034 H       1  ZINC000279974681    0.0700
     27 H27       -11.1684    4.3209   59.4949 H       1  ZINC000279974681    0.0800
     28 H28       -11.8888    4.4538   61.1171 H       1  ZINC000279974681    0.0700
     29 H29       -12.9486    2.2842   60.7451 H       1  ZINC000279974681    0.0800
     30 H30       -12.1338    1.9429   59.1967 H       1  ZINC000279974681    0.1100
     31 H31       -11.7439   -2.0425   61.0543 H       1  ZINC000279974681    0.4100
     32 H32       -14.2866   -2.7093   59.2324 H       1  ZINC000279974681    0.1800
     33 H33       -10.3706   -5.0112   57.3032 H       1  ZINC000279974681    0.1500
     34 H34       -14.9075   -6.2366   55.8678 H       1  ZINC000279974681    0.1400
     35 H35       -14.4517   -6.8273   57.4978 H       1  ZINC000279974681    0.0900
     36 H36       -12.4268    0.3901   62.7080 H       1  ZINC000279974681    0.0900
     37 H37       -11.3459   -0.9175   62.1610 H       1  ZINC000279974681    0.0900
     38 H38        -9.7012   -0.1315   64.2773 H       1  ZINC000279974681    0.1100
     39 H39        -8.9521    1.9293   65.5531 H       1  ZINC000279974681    0.1000
     40 H40        -9.5421    2.9990   64.1714 H       1  ZINC000279974681    0.1000
     41 H41       -11.8942    2.1011   64.4806 H       1  ZINC000279974681    0.1000
     42 H42       -11.3041    1.0314   65.8623 H       1  ZINC000279974681    0.1000
@<TRIPOS>BOND
     1     1     2    1
     2     1    26    1
     3     1    27    1
     4     1    28    1
     5     2     3    1
     6     2    25    1
     7     2     4    1
     8     4     5    1
     9     4    29    1
    10     4    30    1
    11     5     6   am
    12     5    19    1
    13     6     7    2
    14     6     8   am
    15     8     9    1
    16     8    31    1
    17     9    14   ar
    18     9    10   ar
    19    10    11   ar
    20    10    32    1
    21    11    18    1
    22    11    12   ar
    23    12    13   ar
    24    12    16    1
    25    13    14   ar
    26    13    33    1
    27    14    15    1
    28    16    17    1
    29    17    18    1
    30    17    34    1
    31    17    35    1
    32    19    20    1
    33    19    36    1
    34    19    37    1
    35    20    21    1
    36    20    22    1
    37    20    25    1
    38    22    24    1
    39    22    23    1
    40    22    38    1
    41    23    24    1
    42    23    39    1
    43    23    40    1
    44    24    41    1
    45    24    42    1
@<TRIPOS>SUBSTRUCTURE
     1 ZINC000279974681        1 TEMP              0 ****  ****    0 ROOT


##########                                Name:    ZINC000883773972
##########                DOCK_Rotatable_Bonds:                   4
##########                         Heavy_Atoms:                  23
##########                    Molecular_Weight:             343.447
##########                DOCK_Rotatable_Bonds:                   4
##########                       Formal_Charge:                0.01
##########                     HBond_Acceptors:                   8
##########                        HBond_Donors:                   1
##########                         Heavy_Atoms:                  23
##########                          Grid_Score:          -25.801687
##########                     Grid_vdw_energy:          -24.989723
##########                      Grid_es_energy:           -0.811963
##########           Internal_energy_repulsive:            4.791993

@<TRIPOS>MOLECULE
ZINC000883773972
 48 50 1 0 0
SMALL
USER_CHARGES


@<TRIPOS>ATOM
      1 C1         -9.6039    3.8015   66.2707 C.3     1  ZINC000883773972   -0.1700
      2 C2        -10.5363    3.9059   65.0913 C.2     1  ZINC000883773972    0.5300
      3 O3        -11.1726    4.9223   64.9095 O.2     1  ZINC000883773972   -0.5400
      4 N4        -10.6630    2.8699   64.2386 N.am    1  ZINC000883773972   -0.6200
      5 C5        -11.5211    2.8136   63.0438 C.3     1  ZINC000883773972    0.1100
      6 C6        -10.8004    1.9043   62.0347 C.3     1  ZINC000883773972   -0.1100
      7 H7        -10.3137    2.4785   61.2464 H       1  ZINC000883773972    0.1000
      8 C8        -11.7992    0.8827   61.4655 C.3     1  ZINC000883773972    0.1300
      9 N9        -11.1472   -0.4336   61.5627 N.am    1  ZINC000883773972   -0.6400
     10 C10       -11.3168   -1.4799   60.7301 C.2     1  ZINC000883773972    0.7300
     11 O11       -10.7117   -2.5163   60.9252 O.2     1  ZINC000883773972   -0.5800
     12 N12       -12.1569   -1.3772   59.6813 N.am    1  ZINC000883773972   -0.7400
     13 C13       -12.3399   -2.5139   58.7753 C.3     1  ZINC000883773972    0.1800
     14 H14       -12.1839   -3.4426   59.3242 H       1  ZINC000883773972    0.1100
     15 C15       -13.7581   -2.4901   58.2127 C.3     1  ZINC000883773972   -0.1500
     16 C16       -14.0632   -3.7866   57.4681 C.3     1  ZINC000883773972   -0.1000
     17 C17       -13.2527   -3.8482   56.1714 C.3     1  ZINC000883773972   -0.5600
     18 H18       -13.4639   -2.9661   55.5671 H       1  ZINC000883773972    0.1400
     19 C19       -13.6324   -5.1074   55.3897 C.3     1  ZINC000883773972   -0.1400
     20 S20       -11.4835   -3.8947   56.5816 S.o2    1  ZINC000883773972    2.4200
     21 O21       -11.2299   -5.0489   57.3708 O.2     1  ZINC000883773972   -0.9200
     22 O22       -10.7353   -3.6880   55.3914 O.2     1  ZINC000883773972   -0.9300
     23 C23       -11.3249   -2.4220   57.6337 C.3     1  ZINC000883773972   -0.6300
     24 C24       -10.2738   -0.3840   62.7468 C.3     1  ZINC000883773972    0.1100
     25 C25        -9.7825    1.0911   62.8716 C.3     1  ZINC000883773972   -0.1100
     26 H26        -8.7556    1.2073   62.5251 H       1  ZINC000883773972    0.1000
     27 C27        -9.9653    1.5760   64.3165 C.3     1  ZINC000883773972    0.1100
     28 H28        -9.6345    4.7296   66.8414 H       1  ZINC000883773972    0.0900
     29 H29        -9.9146    2.9731   66.9073 H       1  ZINC000883773972    0.0900
     30 H30        -8.5881    3.6262   65.9164 H       1  ZINC000883773972    0.0900
     31 H31       -12.4927    2.3914   63.3006 H       1  ZINC000883773972    0.0800
     32 H32       -11.6455    3.8124   62.6251 H       1  ZINC000883773972    0.0900
     33 H33       -12.7172    0.8898   62.0531 H       1  ZINC000883773972    0.0700
     34 H34       -12.0194    1.1152   60.4237 H       1  ZINC000883773972    0.0900
     35 H35       -12.6406   -0.5508   59.5263 H       1  ZINC000883773972    0.4000
     36 H36       -14.4674   -2.3707   59.0317 H       1  ZINC000883773972    0.0900
     37 H37       -13.8581   -1.6494   57.5263 H       1  ZINC000883773972    0.0800
     38 H38       -13.8018   -4.6361   58.0989 H       1  ZINC000883773972    0.0900
     39 H39       -15.1267   -3.8265   57.2323 H       1  ZINC000883773972    0.0900
     40 H40       -14.6957   -5.0804   55.1517 H       1  ZINC000883773972    0.0800
     41 H41       -13.0544   -5.1501   54.4666 H       1  ZINC000883773972    0.0700
     42 H42       -13.4174   -5.9888   55.9940 H       1  ZINC000883773972    0.0800
     43 H43       -11.5191   -1.5278   57.0412 H       1  ZINC000883773972    0.1400
     44 H44       -10.3173   -2.3756   58.0468 H       1  ZINC000883773972    0.1400
     45 H45       -10.8325   -0.6754   63.6362 H       1  ZINC000883773972    0.0800
     46 H46        -9.4182   -1.0450   62.6085 H       1  ZINC000883773972    0.0800
     47 H47        -8.9948    1.6815   64.8013 H       1  ZINC000883773972    0.0900
     48 H48       -10.5867    0.8730   64.8712 H       1  ZINC000883773972    0.0700
@<TRIPOS>BOND
     1     1     2    1
     2     1    28    1
     3     1    29    1
     4     1    30    1
     5     2     3    2
     6     2     4   am
     7     4    27    1
     8     4     5    1
     9     5     6    1
    10     5    31    1
    11     5    32    1
    12     6     7    1
    13     6    25    1
    14     6     8    1
    15     8     9    1
    16     8    33    1
    17     8    34    1
    18     9    10   am
    19     9    24    1
    20    10    11    2
    21    10    12   am
    22    12    13    1
    23    12    35    1
    24    13    14    1
    25    13    23    1
    26    13    15    1
    27    15    16    1
    28    15    36    1
    29    15    37    1
    30    16    17    1
    31    16    38    1
    32    16    39    1
    33    17    18    1
    34    17    19    1
    35    17    20    1
    36    19    40    1
    37    19    41    1
    38    19    42    1
    39    20    21    2
    40    20    22    2
    41    20    23    1
    42    23    43    1
    43    23    44    1
    44    24    25    1
    45    24    45    1
    46    24    46    1
    47    25    26    1
    48    25    27    1
    49    27    47    1
    50    27    48    1
@<TRIPOS>SUBSTRUCTURE
     1 ZINC000883773972        1 TEMP              0 ****  ****    0 ROOT


##########                                Name:    ZINC000879023512
##########                DOCK_Rotatable_Bonds:                   4
##########                         Heavy_Atoms:                  20
##########                    Molecular_Weight:             346.156
##########                DOCK_Rotatable_Bonds:                   4
##########                       Formal_Charge:        -5.96046e-08
##########                     HBond_Acceptors:                   7
##########                        HBond_Donors:                   1
##########                         Heavy_Atoms:                  20
##########                          Grid_Score:          -25.646690
##########                     Grid_vdw_energy:          -25.055788
##########                      Grid_es_energy:           -0.590903
##########           Internal_energy_repulsive:            2.217831

@<TRIPOS>MOLECULE
ZINC000879023512
 33 34 1 0 0
SMALL
USER_CHARGES


@<TRIPOS>ATOM
      1 O1         -9.6067   -2.1561   58.9120 O.2     1  ZINC000879023512   -0.5600
      2 C2        -10.5223   -1.4647   59.3144 C.2     1  ZINC000879023512    0.7200
      3 N3        -11.5926   -1.2388   58.5270 N.am    1  ZINC000879023512   -0.6800
      4 C4        -11.6474   -1.7955   57.2438 C.ar    1  ZINC000879023512    0.1800
      5 C5        -11.0447   -1.1434   56.1765 C.ar    1  ZINC000879023512   -0.0900
      6 C6        -11.1003   -1.6949   54.9113 C.ar    1  ZINC000879023512   -0.0700
      7 C7        -11.7561   -2.8957   54.7070 C.ar    1  ZINC000879023512   -0.0700
      8 Br8       -11.8301   -3.6477   52.9736 Br      1  ZINC000879023512    0.0200
      9 C9        -12.3576   -3.5478   55.7691 C.ar    1  ZINC000879023512    0.0000
     10 N10       -13.0583   -4.8325   55.5468 N.pl3   1  ZINC000879023512    0.0200
     11 O11       -13.5880   -5.4069   56.4811 O.2     1  ZINC000879023512   -0.1500
     12 O12       -13.1054   -5.3152   54.4295 O.2     1  ZINC000879023512   -0.1300
     13 C13       -12.2997   -3.0040   57.0371 C.ar    1  ZINC000879023512   -0.0500
     14 N14       -10.4695   -0.9287   60.5499 N.am    1  ZINC000879023512   -0.6300
     15 C15       -11.5073   -0.0876   61.1641 C.3     1  ZINC000879023512    0.0900
     16 C16       -11.0023    0.3125   62.5663 C.3     1  ZINC000879023512   -0.1200
     17 C17        -9.4650    0.1422   62.4436 C.3     1  ZINC000879023512   -0.1400
     18 H18        -9.0100    1.0199   61.9845 H       1  ZINC000879023512    0.1000
     19 C19        -8.8348   -0.1486   63.8071 C.3     1  ZINC000879023512    0.0700
     20 F20        -9.1268    0.8979   64.6886 F       1  ZINC000879023512   -0.2100
     21 C21        -9.3645   -1.0939   61.5116 C.3     1  ZINC000879023512    0.1300
     22 H22       -12.3248   -0.6905   58.8495 H       1  ZINC000879023512    0.4200
     23 H23       -10.5333   -0.2055   56.3353 H       1  ZINC000879023512    0.1600
     24 H24       -10.6316   -1.1880   54.0807 H       1  ZINC000879023512    0.1600
     25 H25       -12.7690   -3.5135   57.8656 H       1  ZINC000879023512    0.1800
     26 H26       -11.6673    0.8049   60.5591 H       1  ZINC000879023512    0.0700
     27 H27       -12.4368   -0.6502   61.2514 H       1  ZINC000879023512    0.0700
     28 H28       -11.2590    1.3485   62.7876 H       1  ZINC000879023512    0.0900
     29 H29       -11.4048   -0.3565   63.3267 H       1  ZINC000879023512    0.0900
     30 H30        -9.2390   -1.0803   64.2029 H       1  ZINC000879023512    0.0800
     31 H31        -7.7543   -0.2394   63.6962 H       1  ZINC000879023512    0.0800
     32 H32        -9.4879   -2.0125   62.0852 H       1  ZINC000879023512    0.0800
     33 H33        -8.4082   -1.0978   60.9885 H       1  ZINC000879023512    0.0900
@<TRIPOS>BOND
     1     1     2    2
     2     2     3   am
     3     2    14   am
     4     3     4    1
     5     3    22    1
     6     4    13   ar
     7     4     5   ar
     8     5     6   ar
     9     5    23    1
    10     6     7   ar
    11     6    24    1
    12     7     8    1
    13     7     9   ar
    14     9    10    1
    15     9    13   ar
    16    10    11    2
    17    10    12    2
    18    13    25    1
    19    14    21    1
    20    14    15    1
    21    15    16    1
    22    15    26    1
    23    15    27    1
    24    16    17    1
    25    16    28    1
    26    16    29    1
    27    17    18    1
    28    17    19    1
    29    17    21    1
    30    19    20    1
    31    19    30    1
    32    19    31    1
    33    21    32    1
    34    21    33    1
@<TRIPOS>SUBSTRUCTURE
     1 ZINC000879023512        1 TEMP              0 ****  ****    0 ROOT


##########                                Name:    ZINC000820901229
##########                DOCK_Rotatable_Bonds:                   3
##########                         Heavy_Atoms:                  18
##########                    Molecular_Weight:             331.233
##########                DOCK_Rotatable_Bonds:                   3
##########                       Formal_Charge:           0.0099999
##########                     HBond_Acceptors:                   5
##########                        HBond_Donors:                   1
##########                         Heavy_Atoms:                  18
##########                          Grid_Score:          -23.419981
##########                     Grid_vdw_energy:          -22.695343
##########                      Grid_es_energy:           -0.724637
##########           Internal_energy_repulsive:            2.734128

@<TRIPOS>MOLECULE
ZINC000820901229
 33 35 1 0 0
SMALL
USER_CHARGES


@<TRIPOS>ATOM
      1 O1        -10.4400   -2.7920   61.0042 O.2     1  ZINC000820901229   -0.5300
      2 C2        -10.8180   -1.6646   60.7481 C.2     1  ZINC000820901229    0.6000
      3 N3        -11.6368   -1.4503   59.6993 N.am    1  ZINC000820901229   -0.7100
      4 C4        -12.0669   -2.5744   58.8640 C.3     1  ZINC000820901229    0.1600
      5 H5        -12.1086   -3.4853   59.4613 H       1  ZINC000820901229    0.1000
      6 C6        -11.0879   -2.7608   57.6936 C.3     1  ZINC000820901229   -0.1300
      7 C7        -11.5366   -3.8835   56.7631 C.3     1  ZINC000820901229   -0.1100
      8 C8        -12.9740   -3.6588   56.2652 C.3     1  ZINC000820901229   -0.1100
      9 C9        -13.8639   -3.5549   57.4866 C.3     1  ZINC000820901229    0.0800
     10 H10       -13.7285   -4.4350   58.1153 H       1  ZINC000820901229    0.0700
     11 O11       -15.2524   -3.3273   57.2735 O.3     1  ZINC000820901229   -0.3700
     12 C12       -15.7594   -2.8472   58.5448 C.3     1  ZINC000820901229    0.0500
     13 C13       -14.5765   -2.1635   59.2781 C.3     1  ZINC000820901229   -0.1500
     14 C14       -13.4335   -2.2833   58.2695 C.3     1  ZINC000820901229   -0.1400
     15 H15       -13.3986   -1.4106   57.6174 H       1  ZINC000820901229    0.0900
     16 C16       -10.3859   -0.5347   61.5877 C.2     1  ZINC000820901229    0.0100
     17 C17       -10.5994    0.7577   61.2541 C.2     1  ZINC000820901229   -0.2200
     18 S18        -9.9529    1.7586   62.4797 S.3     1  ZINC000820901229    0.3100
     19 C19        -9.4346    0.3949   63.3673 C.2     1  ZINC000820901229   -0.0100
     20 Br20       -8.5295    0.4697   65.0260 Br      1  ZINC000820901229    0.0700
     21 N21        -9.7511   -0.6914   62.7530 N.2     1  ZINC000820901229   -0.4100
     22 H22       -11.9415   -0.5518   59.4975 H       1  ZINC000820901229    0.4100
     23 H23       -11.0284   -1.8313   57.1275 H       1  ZINC000820901229    0.0700
     24 H24       -10.1008   -2.9992   58.0894 H       1  ZINC000820901229    0.0700
     25 H25       -10.8649   -3.9258   55.9057 H       1  ZINC000820901229    0.0800
     26 H26       -11.4891   -4.8313   57.2990 H       1  ZINC000820901229    0.0700
     27 H27       -13.0265   -2.7351   55.6887 H       1  ZINC000820901229    0.0700
     28 H28       -13.2884   -4.5004   55.6480 H       1  ZINC000820901229    0.0800
     29 H29       -16.5590   -2.1257   58.3770 H       1  ZINC000820901229    0.0900
     30 H30       -16.1293   -3.6842   59.1369 H       1  ZINC000820901229    0.0600
     31 H31       -14.8014   -1.1160   59.4790 H       1  ZINC000820901229    0.0800
     32 H32       -14.3389   -2.6914   60.2017 H       1  ZINC000820901229    0.0800
     33 H33       -11.0966    1.1017   60.3592 H       1  ZINC000820901229    0.2000
@<TRIPOS>BOND
     1     1     2    2
     2     2     3   am
     3     2    16    1
     4     3     4    1
     5     3    22    1
     6     4     5    1
     7     4    14    1
     8     4     6    1
     9     6     7    1
    10     6    23    1
    11     6    24    1
    12     7     8    1
    13     7    25    1
    14     7    26    1
    15     8     9    1
    16     8    27    1
    17     8    28    1
    18     9    10    1
    19     9    14    1
    20     9    11    1
    21    11    12    1
    22    12    13    1
    23    12    29    1
    24    12    30    1
    25    13    14    1
    26    13    31    1
    27    13    32    1
    28    14    15    1
    29    16    21    1
    30    16    17    2
    31    17    18    1
    32    17    33    1
    33    18    19    1
    34    19    20    1
    35    19    21    2
@<TRIPOS>SUBSTRUCTURE
     1 ZINC000820901229        1 TEMP              0 ****  ****    0 ROOT


##########                                Name:    ZINC000569288350
##########                DOCK_Rotatable_Bonds:                   3
##########                         Heavy_Atoms:                  19
##########                    Molecular_Weight:             393.559
##########                DOCK_Rotatable_Bonds:                   3
##########                       Formal_Charge:           0.0299999
##########                     HBond_Acceptors:                   5
##########                        HBond_Donors:                   1
##########                         Heavy_Atoms:                  19
##########                          Grid_Score:          -21.750938
##########                     Grid_vdw_energy:          -21.145746
##########                      Grid_es_energy:           -0.605192
##########           Internal_energy_repulsive:            4.886838

@<TRIPOS>MOLECULE
ZINC000569288350
 26 27 1 0 0
SMALL
USER_CHARGES


@<TRIPOS>ATOM
      1 O1        -11.5192   -3.8235   58.6174 O.2     1  ZINC000569288350   -0.4800
      2 C2        -12.1997   -2.8207   58.7162 C.2     1  ZINC000569288350    0.5700
      3 N3        -12.9177   -2.3868   57.6614 N.am    1  ZINC000569288350   -0.6600
      4 C4        -12.8757   -3.0872   56.4509 C.ar    1  ZINC000569288350    0.1800
      5 C5        -13.5776   -4.2770   56.3110 C.ar    1  ZINC000569288350   -0.1200
      6 C6        -13.5350   -4.9675   55.1151 C.ar    1  ZINC000569288350   -0.0600
      7 C7        -12.7940   -4.4760   54.0567 C.ar    1  ZINC000569288350   -0.1500
      8 C8        -12.0920   -3.2895   54.1910 C.ar    1  ZINC000569288350    0.1300
      9 F9        -11.3691   -2.8114   53.1546 F       1  ZINC000569288350   -0.1200
     10 C10       -12.1360   -2.5904   55.3847 C.ar    1  ZINC000569288350   -0.1000
     11 Cl11      -11.2571   -1.1030   55.5541 Cl      1  ZINC000569288350   -0.0400
     12 C12       -12.2440   -2.0817   59.9934 C.ar    1  ZINC000569288350   -0.1400
     13 C13       -13.3232   -2.2516   60.8666 C.ar    1  ZINC000569288350    0.1400
     14 F14       -14.3295   -3.0936   60.5446 F       1  ZINC000569288350   -0.1200
     15 C15       -13.3566   -1.5552   62.0611 C.ar    1  ZINC000569288350   -0.1300
     16 C16       -12.3274   -0.6936   62.3912 C.ar    1  ZINC000569288350   -0.0600
     17 C17       -11.2568   -0.5208   61.5308 C.ar    1  ZINC000569288350   -0.0900
     18 C18       -11.2053   -1.2131   60.3389 C.ar    1  ZINC000569288350   -0.0500
     19 I19        -9.5828   -0.9482   59.0402 I       1  ZINC000569288350    0.0000
     20 H20       -13.4637   -1.5891   57.7415 H       1  ZINC000569288350    0.4200
     21 H21       -14.1565   -4.6630   57.1372 H       1  ZINC000569288350    0.1600
     22 H22       -14.0812   -5.8929   55.0071 H       1  ZINC000569288350    0.1500
     23 H23       -12.7621   -5.0184   53.1233 H       1  ZINC000569288350    0.1500
     24 H24       -14.1888   -1.6847   62.7372 H       1  ZINC000569288350    0.1500
     25 H25       -12.3588   -0.1521   63.3250 H       1  ZINC000569288350    0.1500
     26 H26       -10.4567    0.1545   61.7960 H       1  ZINC000569288350    0.1500
@<TRIPOS>BOND
     1     1     2    2
     2     2     3   am
     3     2    12    1
     4     3     4    1
     5     3    20    1
     6     4    10   ar
     7     4     5   ar
     8     5     6   ar
     9     5    21    1
    10     6     7   ar
    11     6    22    1
    12     7     8   ar
    13     7    23    1
    14     8     9    1
    15     8    10   ar
    16    10    11    1
    17    12    18   ar
    18    12    13   ar
    19    13    14    1
    20    13    15   ar
    21    15    16   ar
    22    15    24    1
    23    16    17   ar
    24    16    25    1
    25    17    18   ar
    26    17    26    1
    27    18    19    1
@<TRIPOS>SUBSTRUCTURE
     1 ZINC000569288350        1 TEMP              0 ****  ****    0 ROOT

